%mem=800MW
%nprocshared=64
#p wB97XD/6-31g** opt td=(triplet,nstates=3,root=2) pop=esp scf=(MaxCycle=20000) nosymm iop(3/107=0003000000,3/108=0003000000) SCRF=(PCM,Solvent=Generic,Read)

IT-M

0  1
C          0.14005       -0.49923        0.02593
C          0.15976       -0.37950        1.42040
C          1.38943       -0.16875        2.07237
C          2.58903       -0.08417        1.37183
C          2.55619       -0.20630       -0.01905
C          1.34116       -0.41123       -0.70366
C          1.15890       -0.06653        3.53075
C         -0.31930       -0.19201        3.74098
C         -0.92101       -0.45627        2.44494
C         -1.00814        0.01175        4.94050
C         -0.62813        0.23173        6.28606
S          1.00254        0.28688        6.99231
C          0.34188        0.53628        8.59318
C         -1.07615        0.57799        8.55712
C         -1.62145        0.41320        7.29182
C          0.85784        0.69656        9.89064
C         -0.16471        0.85517       10.82835
S         -1.77687        0.82086       10.15661
C          0.36957        1.01548       12.16023
C          1.78648        0.99616       12.04206
C          2.23232        0.79613       10.56969
C         -0.26972        1.14980       13.40514
C          0.52724        1.26198       14.53472
C          1.94447        1.24820       14.41621
C          2.58366        1.11275       13.17119
C          0.08061        1.36974       16.01649
C          1.45469        1.42763       16.70062
C          2.47831        1.37766       15.75156
S          4.08915        1.49236       16.41749
C          3.38602        1.60232       18.03097
C          1.96771        1.55679       18.00207
S          1.30381        1.64054       19.61960
C          2.93324        1.75110       20.32238
C          3.92901        1.71463       19.30289
C         -0.72483        0.08926       16.35888
C         -2.10496        0.01574       16.11234
C         -2.81655       -1.16547       16.33641
C         -2.18148       -2.32319       16.81099
C         -0.79856       -2.25022       17.04318
C         -0.08437       -1.07166       16.81851
C         -2.95648       -3.59902       17.08788
C         -0.66634        2.69440       16.32941
C         -1.51186        2.80524       17.44415
C         -2.11897        4.02015       17.77152
C         -1.90042        5.17661       17.00710
C         -1.04064        5.06633       15.90283
C         -0.43406        3.85293       15.57145
C          3.30639        1.88394       21.68085
C          2.61525        1.89543       22.89598
C          1.16039        1.60110       23.10285
C          0.96481        1.45065       24.56311
C          2.18457        1.69552       25.22351
C          3.21214        2.06665       24.20961
C          2.24477        1.57055       26.61498
C          1.08981        1.21276       27.33860
C         -0.11935        0.99295       26.64989
C         -0.19049        1.10910       25.25886
C          2.96620        2.03245        9.98313
C          3.75672        1.91784        8.82873
C          4.35771        3.03813        8.25056
C          4.19303        4.32024        8.79737
C          3.39112        4.43340        9.94366
C          2.78723        3.31511       10.52347
C          3.05822       -0.51400       10.50136
C          4.44395       -0.50394       10.73354
C          5.17808       -1.69047       10.76710
C          4.56178       -2.93784       10.57371
C          3.17652       -2.94467       10.35274
C          2.43781       -1.75826       10.32073
O          0.29886        1.49212       22.23938
C          4.49040        2.56512       24.50391
C          5.40125        3.09796       23.53813
N          6.19314        3.56522       22.81759
H         -1.01010        0.72450       27.20725
C         -2.58766        6.48754       17.34451
C          4.87892        5.53014        8.18853
C          5.37285       -4.22147       10.57667
C         -2.25864       -0.78965        2.17695
C         -3.25300       -1.05561        3.16988
N         -4.11859       -1.30840        3.91277
O          2.01552        0.10040        4.39002
H          3.48127       -0.14157       -0.58137
C          5.02769        2.66870       25.82480
N          5.54136        2.77994       26.86786
C         -2.79917       -0.95500        0.86385
N         -3.32355       -1.09673       -0.17021
H          3.52372        0.07215        1.89631
H         -0.78104       -0.65488       -0.51368
H         -2.08557        0.01712        4.84980
H         -2.67817        0.40797        7.06690
H          3.66200        1.09580       13.10214
H         -1.34807        1.16002       13.47404
H          4.98461        1.77436       19.52532
H          4.38105        1.96642       21.77125
H          3.16473        1.73141       27.15535
C          1.15397        1.03712       28.84432
H         -1.12049        0.93531       24.73160
H          2.17204        3.45718       11.40261
H          6.24776       -1.63850       10.94481
H          4.96369        0.43411       10.88335
H          2.65952       -3.88697       10.20218
H          1.36886       -1.81777       10.15820
H          3.23205        5.40682       10.39696
H          4.96163        2.90459        7.35881
H          3.92059        0.94890        8.37534
H         -2.64103        0.88400       15.75002
H         -3.88385       -1.17782       16.13892
H          0.98269       -1.06994       17.00194
H         -0.26628       -3.12392       17.40578
H          0.22856        3.82172       14.71581
H         -0.83619        5.93830       15.28947
H         -2.76982        4.06118       18.63910
H         -1.71173        1.94127       18.06438
H          5.02965        5.40522        7.11396
H          4.29952        6.44281        8.34589
H          5.86428        5.68580        8.64249
H          4.74391       -5.09419       10.76462
H          5.86529       -4.37163        9.60948
H          6.15437       -4.19770       11.34035
H         -2.75460        6.58774       18.41945
H         -1.99810        7.34553       17.01326
H         -3.56514        6.55178       16.85325
H         -3.92754       -3.59616       16.58870
H         -2.40596       -4.48088       16.74959
H         -3.13644       -3.71984       18.16177
C          1.33805       -0.54098       -2.21549
H          2.01751        1.54661       29.27427
H          0.25316        1.42328       29.32667
H          1.23385       -0.02524       29.09915
H          0.32973       -0.66579       -2.61172
H          1.77873        0.34496       -2.68202
H          1.93329       -1.40396       -2.52964
                                                 
  eps=4.46238                                      
  epsinf=4.46238                                   
  RSolv=7.54                                       
  
