%mem=1000MW
%nprocshared=40
#p wB97XD/6-31g** nosymm pop=esp opt td=(triplet,nstates=2,root=1) scf=(MaxCycle=20000) iop(3/107=0001100000,3/108=0001100000) SCRF=(PCM,Solvent=Generic,Read)

 IT-4Cl opt-TDdft

0 1
C         -0.01599       -0.29251       -0.20664
C         -0.00456       -0.15214        1.18868
C          1.24512       -0.09620        1.82799
C          2.43206       -0.15779        1.09538
C          2.42397       -0.28443       -0.30388
C          1.17406       -0.35356       -0.93687
C         -1.32231       -0.19019        2.00668
C         -2.55790        0.19087        1.17894
C         -3.42751       -0.92401        1.04828
C         -2.90157       -2.06394        1.69187
C         -1.64956       -1.67921        2.29669
S         -4.89043       -0.58368        0.14069
C         -4.34086        1.07946       -0.07605
C         -3.07778        1.31690        0.55488
C         -4.89184        2.16902       -0.72526
C         -4.07060        3.32316       -0.62464
S         -2.59318        2.97718        0.31883
C         -0.89730       -2.59394        2.99106
C         -1.39240       -3.92305        3.09683
C         -2.64786       -4.30661        2.50037
C         -3.39808       -3.39351        1.80133
C         -0.85362       -5.07070        3.72021
C         -1.68915       -6.19894        3.53739
C         -2.94606       -5.80997        2.74593
S          0.59736       -5.39844        4.64953
C          0.08829       -7.08098        4.79773
C         -1.15924       -7.33151        4.15153
S         -1.62277       -9.00964        4.31866
C         -0.15093       -9.36112        5.25326
C          0.64704       -8.19056        5.40381
C         -4.26049        4.65078       -1.06265
C         -5.15951        5.20447       -1.98512
C         -5.86997        4.48812       -3.08891
C         -6.35333        5.54946       -4.02035
C         -6.03454        6.81518       -3.49964
C         -5.35708        6.63014       -2.18490
C         -7.00777        5.38653       -5.23165
C         -7.35374        6.53065       -5.96376
C         -7.03753        7.80707       -5.45719
C         -6.38222        7.95601       -4.22395
Cl        -8.16835        6.32607       -7.49843
Cl        -7.44515        9.26034       -6.34300
O         -6.00958        3.28470       -3.25959
C         -5.06650        7.65031       -1.27681
C         -5.22506        9.04377       -1.55974
N         -5.31901       10.19539       -1.72605
C         -1.31169        0.69291        3.28306
C         -0.66117        1.93812        3.29379
C         -0.71939        2.77267        4.41119
C         -1.43523        2.40492        5.56276
C         -2.09532        1.16724        5.54318
C         -2.03919        0.32905        4.42585
C         -3.04654       -6.50914        1.36572
C         -4.26756       -6.57356        0.67513
C         -4.34403       -7.12781       -0.60441
C         -3.20566       -7.63679       -1.25033
C         -1.98453       -7.55569       -0.56357
C         -1.90420       -6.99980        0.71591
C         -4.17499       -6.04026        3.66812
C         -4.83279       -7.28150        3.69862
C         -5.88115       -7.52068        4.58843
C         -6.31538       -6.53576        5.49111
C         -5.64988       -5.30125        5.46499
C         -4.59912       -5.05848        4.57555
C          0.26297      -10.58311        5.83405
C         -0.24590      -11.88196        5.86540
C         -1.42838      -12.38737        5.11765
C         -1.43817      -13.86524        5.29173
C         -0.36766      -14.24318        6.11959
C          0.35565      -13.01435        6.56262
C         -0.16417      -15.59902        6.38440
C         -1.03965      -16.54328        5.82487
C         -2.11802      -16.14410        5.00965
C         -2.31784      -14.78419        4.73999
C         -3.29792       -8.27602       -2.62472
C         -7.46774       -6.80201        6.44345
O         -2.23981      -11.74213        4.46642
C          1.36299      -12.99642        7.52759
C          1.90595      -14.16987        8.14224
N          2.40287      -15.07673        8.68351
Cl        -0.74439      -18.23269        6.17294
Cl        -3.22390      -17.30613        4.31262
C         -1.47063        3.30801        6.78292
C          3.71837       -0.31853       -1.09704
C          1.95305      -11.81113        8.07379
N          2.47120      -10.89656        8.58150
C         -4.64277        7.42906        0.07372
N         -4.32407        7.33362        1.19263
H         -7.24289        4.40022       -5.60754
H         -6.15880        8.95304       -3.88078
H         -3.56416        5.35770       -0.62812
H         -5.83382        2.17584       -1.24574
H          0.04422       -2.32264        3.44645
H         -4.33779       -3.66549        1.34252
H          1.58289       -8.19606        5.94382
H          1.20399      -10.45173        6.35008
H          0.64653      -15.95668        6.99751
H         -3.13686      -14.46035        4.11246
H         -2.57274       -0.61221        4.45837
H          3.37751       -0.10486        1.62601
H          1.30465        0.00305        2.90457
H          1.11911       -0.45920       -2.01560
H         -0.95513       -0.36260       -0.74079
H         -2.66504        0.84549        6.40914
H         -0.19993        3.72504        4.38020
H         -0.09290        2.26333        2.43206
H         -5.17358       -6.19800        1.13374
H         -5.30824       -7.16467       -1.10141
H         -0.93653       -6.94898        1.19904
H         -1.07825       -7.93099       -1.02810
H         -4.11201       -4.09236        4.60417
H         -5.94832       -4.51300        6.14878
H         -6.36428       -8.49245        4.57683
H         -4.53892       -8.07115        3.01965
H         -1.66847        4.34639        6.50340
H         -2.24030        2.99711        7.49183
H         -0.50915        3.29002        7.30756
H          3.57634       -0.77647       -2.07812
H          4.10277        0.69492       -1.25770
H          4.49417       -0.88055       -0.57069
H         -7.35395       -7.76938        6.94045
H         -7.53855       -6.03269        7.21469
H         -8.42212       -6.82295        5.90618
H         -4.10852       -7.84292       -3.21511
H         -2.36786       -8.15482       -3.18475
H         -3.49142       -9.35110       -2.53818

  eps=4.88617
  epsinf=4.88617
  RSolv=8.36
 
