%mem=1000MW
%nprocshared=40
#p wB97XD/6-31g** nosymm pop=esp opt td=(nstates=2,root=1) scf=(MaxCycle=20000) iop(3/107=0016000000,3/108=0016000000) SCRF=(PCM,Solvent=Generic,Read)

 Y6 opt-TDdft

0 1
C          0.30757        0.86395        0.17249
C          0.32171        0.66971        1.55805
C          1.33252        1.27630        2.32670
C          2.33438        2.06290        1.76925
C          2.30767        2.25449        0.39190
C          1.30406        1.66113       -0.38793
C         -0.55659       -0.11908        2.46116
C         -0.13341        0.13548        3.82383
C          1.12908        0.93472        3.75717
C         -0.87901       -0.15032        4.97316
C         -0.61656       -0.07621        6.36003
S          0.97315        0.17931        7.11512
C          0.29727       -0.10330        8.69401
C         -1.09722       -0.32039        8.63095
C         -1.63667       -0.30757        7.34268
S         -1.83862       -0.54504       10.22753
C         -0.26488       -0.34599       10.95919
C          0.76060       -0.11128       10.02344
N          1.97423       -0.00100       10.68224
C          1.71591       -0.13946       12.04307
C          0.32547       -0.39647       12.23562
C          2.58715       -0.05842       13.17651
C          2.13171       -0.50721       14.45188
C          0.75365       -0.86570       14.64428
C         -0.17400       -0.74124       13.53827
N          3.90274        0.38427       13.28645
C          4.29966        0.16081       14.59540
C          3.22881       -0.39003       15.32538
C          5.45601        0.34624       15.37693
C          5.25004       -0.06787       16.71170
S          3.61629       -0.69681       17.00066
C          6.36008        0.06941       17.54814
C          7.48324        0.60211       16.83022
S          7.06904        0.95609       15.13704
N         -1.43008       -1.03574       13.85647
S         -1.42778       -1.44962       15.45872
N          0.18503       -1.25758       15.77958
C          8.76241        0.71729       17.42058
C          9.97954        1.27619       17.01511
C         11.22639        1.20033       17.75100
C         12.14855        2.22198       17.18915
C         11.54187        2.80829       16.06284
C         10.19354        2.21687       15.87214
C         12.16562        3.78377       15.29277
C         13.43787        4.19086       15.68032
C         14.05271        3.62307       16.80617
C         13.42974        2.63688       17.56878
F         15.27744        4.04732       17.15412
F         14.09228        5.13450       14.98347
C         11.56400        0.27559       18.75005
C         12.77951        0.31972       19.49770
N         13.74695        0.30830       20.15154
O          9.41972        2.47678       14.96137
C          6.37907       -0.29656       19.01067
C          4.57082        1.37383       12.42687
C          3.25568       -0.23829       10.00083
C         -3.09517       -0.51652        7.02293
O          1.85310        1.27009        4.68400
C         -1.54603       -1.01842        2.03825
C         -1.97414       -1.14768        0.68249
N         -2.37650       -1.29017       -0.40442
F          3.23987        3.01279       -0.20817
F          1.30902        1.87163       -1.71339
C         10.77651       -0.86824       19.08560
N         10.20603       -1.84007       19.39139
C         -2.18331       -1.96888        2.89358
N         -2.72147       -2.79261        3.52226
H         13.95963        2.24615       18.42310
H         11.68905        4.21852       14.42441
H          8.78020        0.28295       18.41142
H          6.81093        0.50267       19.61670
H          6.96000       -1.20551       19.18329
H          5.36948       -0.47499       19.38011
H          4.89744        2.21335       13.03931
H          3.86221        1.75676       11.69949
H          5.43097        0.94062       11.91822
H          3.11606       -1.00645        9.24132
H          3.98102       -0.61359       10.71574
H          3.63024        0.67030        9.53132
H         -3.46898        0.25285        6.34393
H         -3.70134       -0.47772        7.92760
H         -3.26105       -1.49007        6.55570
H         -1.88841       -0.48818        4.77760
H          3.10867        2.51623        2.37354
H         -0.43494        0.44120       -0.48606

  eps=3.36
  epsinf=3.36
  RSolv=7.28

