%mem=1000MW
%nprocshared=40
#p wB97XD/6-31g** nosymm pop=esp opt td=(triplet,nstates=3,root=2) scf=(MaxCycle=20000) iop(3/107=0016000000,3/108=0016000000) SCRF=(PCM,Solvent=Generic,Read)

 Y6 opt-TDdft

0 1
C          0.25453        0.90696        0.17739
C          0.29166        0.68856        1.55847
C          1.31702        1.27419        2.32189
C          2.31522        2.06337        1.76188
C          2.26768        2.27759        0.38827
C          1.24690        1.70687       -0.38593
C         -0.57621       -0.11261        2.46507
C         -0.13244        0.13056        3.82788
C          1.12816        0.91826        3.75349
C         -0.87041       -0.16205        4.97965
C         -0.60155       -0.09358        6.36317
S          0.98891        0.17891        7.10965
C          0.32337       -0.11172        8.69501
C         -1.07597       -0.34502        8.63152
C         -1.61772       -0.33687        7.35276
S         -1.81380       -0.58892       10.23162
C         -0.23856       -0.38175       10.96072
C          0.79066       -0.12384       10.00927
N          2.00280       -0.00217       10.66290
C          1.75304       -0.15439       12.03391
C          0.34478       -0.43477       12.21934
C          2.59715       -0.03749       13.14889
C          2.13532       -0.46606       14.45223
C          0.75656       -0.83629       14.64456
C         -0.16080       -0.76050       13.52854
N          3.92754        0.39053       13.26292
C          4.31608        0.17567       14.57278
C          3.22009       -0.35675       15.31194
C          5.45971        0.35316       15.35222
C          5.24574       -0.04379       16.69870
S          3.60026       -0.65057       16.99262
C          6.34676        0.08938       17.53485
C          7.48232        0.60331       16.81598
S          7.08435        0.94153       15.11611
N         -1.41316       -1.06665       13.84100
S         -1.42261       -1.43605       15.45727
N          0.18703       -1.20589       15.78425
C          8.75564        0.71791       17.41398
C          9.97939        1.26102       17.01063
C         11.21599        1.19610       17.77370
C         12.14649        2.21373       17.21164
C         11.56322        2.76488       16.05704
C         10.21725        2.16598       15.85317
C         12.19822        3.72694       15.27963
C         13.45646        4.15482       15.69035
C         14.04688        3.62287       16.84628
C         13.41221        2.65031       17.61634
F         15.25769        4.06901       17.21596
F         14.12023        5.08645       14.98726
C         11.54351        0.28799       18.78030
C         12.76293        0.32769       19.52574
N         13.73131        0.31067       20.17686
O          9.46547        2.40870       14.91765
C          6.35720       -0.26161       19.00205
C          4.58988        1.39040       12.40997
C          3.28152       -0.25793        9.98183
C         -3.07607       -0.55779        7.03617
O          1.86857        1.24702        4.67166
C         -1.55869       -1.00800        2.04200
C         -1.98376       -1.14001        0.68348
N         -2.38314       -1.28680       -0.40328
F          3.19636        3.03793       -0.21371
F          1.23095        1.94242       -1.70736
C         10.74292       -0.84346       19.13507
N         10.16490       -1.80460       19.45736
C         -2.20006       -1.95930        2.89656
N         -2.74016       -2.78422        3.52079
H         13.92092        2.28761       18.49554
H         11.74027        4.13704       14.38957
H          8.76011        0.30387       18.41390
H          6.77645        0.54850       19.60256
H          6.94457       -1.16308       19.18914
H          5.34635       -0.44505       19.36561
H          4.90838        2.23179       13.02477
H          3.88009        1.76797       11.68060
H          5.45446        0.96565       11.90150
H          3.13795       -1.03454        9.23115
H          4.00555       -0.62697       10.70162
H          3.66183        0.64282        9.50184
H         -3.46121        0.21812        6.37108
H         -3.67869       -0.53850        7.94392
H         -3.23392       -1.52580        6.55573
H         -1.88109       -0.49889        4.78798
H          3.10214        2.50156        2.36099
H         -0.50281        0.50196       -0.47534

  eps=3.36
  epsinf=3.36
  RSolv=7.28

