%mem=800MW
%nprocshared=64
#p wB97XD/6-31g** opt td=(nstates=2,root=1) pop=esp scf=(MaxCycle=20000) nosymm iop(3/107=0001000000,3/108=0001000000) SCRF=(PCM,Solvent=Generic,Read)

IT-4F

0  1
C          0.27962        0.17851       -0.01048
C          0.22011        0.12107        1.39177
C          1.43054        0.19398        2.09666
C          2.65145        0.30520        1.42677
C          2.71544        0.35587        0.02571
C          1.50151        0.29164       -0.67699
C         -1.14494        0.10563        2.13009
C         -1.03439       -0.31312        3.60328
C         -1.34972        0.75669        4.44496
C         -1.67073        1.94033        3.68289
C         -1.59082        1.58136        2.30816
S         -1.30780        0.37554        6.14899
C         -0.85589       -1.27916        5.74029
C         -0.75542       -1.47735        4.33847
C         -0.58783       -2.41074        6.49730
C         -0.26550       -3.54393        5.69502
S         -0.29998       -3.12466        3.96770
C         -2.00934        3.24242        4.09265
C         -2.27744        4.18192        3.10859
C         -2.21273        3.81897        1.73413
C         -1.86577        2.51906        1.32425
C         -2.63414        5.68179        3.28538
C         -2.77312        6.09242        1.81216
C         -2.54606        4.99906        0.97205
S         -2.73111        5.34232       -0.73068
C         -3.12265        7.01265       -0.32397
C         -3.10113        7.24319        1.07650
S         -3.48334        8.90973        1.44460
C         -3.66646        9.28905       -0.28267
C         -3.43584        8.13179       -1.08206
C         -0.00651       -4.79615        6.30492
C          0.32317       -6.07142        5.83675
C          0.62945       -6.43603        4.41930
C          1.02980       -7.86382        4.42367
C          0.95402       -8.36076        5.73811
C          0.49660       -7.26830        6.64410
C          1.41904       -8.64263        3.33846
C          1.74451       -9.97177        3.58675
C          1.66979      -10.48735        4.88976
C          1.27746       -9.70330        5.97391
O          0.57582       -5.71160        3.43488
C          0.26232       -7.42651        8.01978
C          0.52405       -8.63273        8.74123
N          0.71770       -9.57568        9.40274
C         -2.22430       -0.78337        1.45699
C         -1.87788       -1.97879        0.80748
C         -2.85731       -2.82605        0.28432
C         -4.22325       -2.52061        0.39410
C         -4.56646       -1.33006        1.05411
C         -3.58936       -0.47942        1.57696
C         -4.00757        5.90109        3.97671
C         -4.31885        7.11896        4.59977
C         -5.58175        7.34354        5.15566
C         -6.58673        6.36645        5.10610
C         -6.27679        5.15401        4.46737
C         -5.01678        4.92641        3.91154
C         -1.44454        6.36934        4.00577
C         -1.36239        6.38696        5.40799
C         -0.25233        6.92902        6.05902
C          0.82495        7.47246        5.34056
C          0.74628        7.43930        3.93988
C         -0.36226        6.89606        3.28531
C         -3.97157       10.52873       -0.89653
C         -4.24707       11.81794       -0.43171
C         -4.50879       12.98891       -1.25286
C         -4.92920       14.09265       -0.34345
C         -4.85365       13.64147        0.98749
C         -4.41006       12.22610        0.99774
C         -5.16212       14.44561        2.08001
C         -5.56876       15.75048        1.82233
C         -5.65633       16.21666        0.50163
C         -5.33979       15.40890       -0.59005
C         -7.95058        6.59480        5.73354
C          2.01087        8.10040        6.05114
C         -4.35625       13.11982       -2.64265
C         -4.69791       14.29814       -3.37644
N         -4.96058       15.21838       -4.04609
O         -4.22697       11.54107        1.99460
C         -5.28214       -3.43485       -0.19644
C          4.04642        0.45025       -0.69917
C         -3.80920       12.12279       -3.50962
N         -3.36116       11.37184       -4.28439
C         -0.28095       -6.42842        8.88772
N         -0.72820       -5.67861        9.66413
F         -5.88397       16.57838        2.83392
F         -6.05769       17.48160        0.28721
H         -5.09142       14.08055        3.09589
H         -5.43269       15.83772       -1.57471
H         -3.99932       10.41749       -1.97130
H         -3.49865        8.15436       -2.16029
H         -2.05967        3.49588        5.14177
H         -1.81588        2.26580        0.27503
H         -0.62480       -2.46008        7.57584
H         -0.09381       -4.71323        7.37872
H          1.24228      -10.17121        6.94425
F          1.98628      -11.77775        5.09371
F          2.13276      -10.77774        2.58281
H          1.47158       -8.23984        2.33586
H         -4.83005        3.97822        3.42370
H         -0.23112        6.92829        7.14437
H         -2.16988        5.98545        6.00726
H          1.55889        7.84235        3.34386
H         -0.36889        6.88454        2.20267
H         -7.02782        4.37312        4.40066
H         -5.77848        8.29846        5.63222
H         -3.57532        7.90227        4.66711
H         -0.62936        0.12776       -0.59684
H          1.50317        0.33056       -1.76182
H          1.43559        0.17121        3.17906
H          3.56543        0.35478        2.01018
H         -3.90531        0.42239        2.08631
H         -5.61134       -1.05924        1.16870
H         -2.54637       -3.74000       -0.21159
H         -0.83781       -2.25754        0.69954
H         -8.13857        7.65577        5.90989
H         -8.75098        6.21148        5.09512
H         -8.02729        6.08013        6.69773
H          2.92636        8.01046        5.46188
H          1.83651        9.16807        6.22562
H          2.18753        7.63450        7.02340
H         -5.01521       -4.48723       -0.07149
H         -6.25562       -3.27659        0.27255
H         -5.40005       -3.25256       -1.27048
H          3.93510        0.91001       -1.68368
H          4.76897        1.04034       -0.13024
H          4.48072       -0.54491       -0.84714
                                                 
  eps=4.73931                                      
  epsinf=4.73931                                   
  RSolv=8.25                                       
   
