%mem=800MW
%nprocshared=64
#p wB97XD/6-31g** opt td=(triplet,nstates=2,root=1) pop=esp scf=(MaxCycle=20000) nosymm iop(3/107=0000400000,3/108=0000400000) SCRF=(PCM,Solvent=Generic,Read)

IEICO-4F

0  1
C         12.29307       -0.83386        9.77796
C         12.66904        0.04413        8.75281
C         13.96571       -0.05220        8.21349
C         14.89611       -0.99225        8.64376
C         14.50802       -1.86312        9.65799
C         13.22384       -1.77456       10.21563
C         14.13644        0.99023        7.16802
C         12.85239        1.73483        7.09185
C         11.93315        1.13822        8.05805
C         12.57654        2.81417        6.25764
C         13.30216        3.54351        5.27891
C         12.69613        4.61683        4.59326
C         13.52691        5.24577        3.66232
C         14.82873        4.68079        3.59846
S         14.96193        3.33331        4.72693
C         15.93106        5.07348        2.79186
C         17.22244        4.49716        2.78287
C         18.08757        5.12021        1.89063
C         17.49369        6.17972        1.18786
S         15.83417        6.42182        1.63016
C         18.41458        6.79174        0.29583
C         19.65551        6.07532        0.40925
C         19.53955        4.91942        1.43716
C         20.75844        6.46746       -0.31562
C         20.62599        7.58180       -1.18126
C         19.37849        8.28408       -1.31205
C         18.27988        7.90148       -0.57566
C         19.50622        9.46735       -2.30618
C         20.99185        9.33956       -2.67032
C         21.56491        8.23322       -2.02550
S         23.23175        8.00792       -2.45038
C         23.16741        9.43179       -3.52089
C         21.87839       10.01257       -3.50293
C         18.69313        9.27203       -3.61478
C         18.54108       10.34472       -4.51230
C         17.89721       10.17573       -5.73746
C         17.37742        8.92754       -6.12519
C         17.53432        7.86043       -5.23053
C         18.18275        8.02598       -4.00100
C         16.66685        8.75693       -7.45646
C         19.15884       10.77723       -1.55357
C         17.84437       11.26836       -1.52726
C         17.51498       12.40869       -0.78943
C         18.48156       13.10214       -0.04448
C         19.79353       12.60118       -0.06478
C         20.12587       11.46110       -0.79997
C         24.28825        9.87420       -4.27453
S         24.17815       11.29106       -5.31704
C         25.85209       11.12208       -5.83856
C         26.44463       10.00736       -5.20929
C         25.59246        9.31564       -4.34417
C         19.63672        3.50830        0.79598
C         19.44628        3.29966       -0.57704
C         19.45690        2.01103       -1.12068
C         19.65187        0.87910       -0.31562
C         19.82559        1.09057        1.06275
C         19.81559        2.37491        1.60822
C         20.58342        5.15815        2.55815
C         20.29411        5.97335        3.66334
C         21.26144        6.23983        4.63561
C         22.55910        5.71230        4.54094
C         22.84922        4.90936        3.42649
C         21.88370        4.63896        2.45367
C         26.59825       11.91646       -6.74900
C         26.33399       13.04344       -7.52203
C         25.04143       13.77354       -7.59600
C         25.21885       14.85865       -8.59552
C         26.53189       14.81029       -9.10032
C         27.27067       13.70408       -8.42804
C         26.91734       15.73705      -10.07793
C         25.97879       16.67495      -10.50532
C         24.67774       16.71436       -9.98237
C         24.28083       15.79602       -9.01458
O         25.87846        8.22399       -3.60809
C         27.19961        7.65760       -3.67922
O         24.01256       13.54446       -6.96976
C         28.62222       13.41468       -8.64901
C         29.37013       12.39413       -7.98127
N         30.05649       11.59077       -7.48241
C         18.12085       14.33093        0.77228
C         19.70669       -0.51757       -0.90944
C         23.61320        6.02053        5.59026
O         13.22338        6.28578        2.86140
C         11.90657        6.86262        2.92933
C         10.59908        1.47436        8.31609
C          9.77961        0.82384        9.29176
N          9.04421        0.34881       10.06511
O         15.15461        1.18058        6.51210
C         29.45598       14.12342       -9.57049
N         30.20327       14.64698      -10.29985
C          9.85738        2.49567        7.64247
N          9.17681        3.30421        7.14403
H         15.88609       -1.05593        8.21224
H         11.32557       -0.82539       10.25323
H         11.67499        4.90654        4.78886
H         11.90143        7.65939        2.19008
H         11.71766        7.27951        3.92068
H         11.14538        6.12230        2.67518
H         17.49202        3.66655        3.41670
H         19.28429        4.13854       -1.24144
H         19.30998        1.89339       -2.18967
H         19.97154        0.24276        1.72476
H         19.95603        2.48877        2.67593
H         19.30889        6.40778        3.77897
H         20.99425        6.86720        5.48025
H         22.15190        4.00461        1.61793
H         23.83959        4.47968        3.31292
H         21.15076       11.11157       -0.78052
H         20.57279       13.10667        0.49707
H         17.06564       10.77122       -2.09230
H         16.48844       12.76162       -0.80279
H         18.92385       11.32519       -4.25680
H         17.80140       11.02920       -6.40141
H         18.28551        7.16632       -3.35174
H         17.14904        6.87882       -5.48800
H         17.33895        8.42763       -0.65219
H         21.70386        5.95109       -0.22910
H         21.62849       10.88847       -4.08118
H         17.94977       14.06522        1.82156
H         17.21038       14.80589        0.40073
H         18.92178       15.07410        0.75123
H         15.70344        9.27799       -7.45551
H         16.47534        7.70520       -7.67770
H         17.25904        9.17182       -8.27722
H         27.47226        9.73482       -5.39577
H         27.89754       15.76877      -10.52520
H         23.27807       15.82146       -8.60947
H         27.18851        6.80991       -2.99892
H         27.94924        8.38082       -3.35162
H         27.41870        7.31379       -4.69219
H         19.15781       -0.57620       -1.85185
H         19.28744       -1.25972       -0.22568
H         20.74305       -0.80983       -1.11351
H         23.16978        6.12071        6.58387
H         24.12255        6.96410        5.36369
H         24.37477        5.23914        5.63630
H         11.58169        3.22414        6.35737
H         27.59756       11.51796       -6.85013
F         23.81789       17.64810      -10.42783
F         26.32684       17.57188      -11.44540
F         12.88486       -2.62642       11.19976
F         15.36000       -2.79805       10.11603

 eps=4.99
 epsinf=4.99
 RSolv=7.92
 
