%mem=1000MW
%nprocshared=32
%chk=Y6-TDDFT-scan-90-S1.chk
#p wB97XD/6-31g** td=(nstates=1) scf=(MaxCycle=20000) iop(3/107=0016000000,3/108=0016000000) SCRF=(PCM,Solvent=Generic,Read)

 Y6

0 1
C         -0.02880        0.38404        0.05262
C          0.07357        0.17208        1.43316
C          1.28496        0.45224        2.09249
C          2.41253        0.91809        1.42149
C          2.30221        1.12056        0.05188
C          1.09206        0.86248       -0.61684
C         -0.89879       -0.34797        2.42510
C         -0.30086       -0.15965        3.75735
C          1.13269        0.19966        3.54843
C         -1.01073       -0.11506        4.93595
C         -0.65568        0.04637        6.31091
S          0.98155       -0.08217        6.97904
C          0.35766        0.05216        8.58783
C         -1.03773        0.23449        8.59409
C         -1.63220        0.23323        7.32002
S         -1.71862        0.43266       10.21795
C         -0.11113        0.27122       10.88019
C          0.88520        0.08381        9.89827
N          2.11650       -0.06151       10.50031
C          1.91785        0.06504       11.87596
C          0.51374        0.22843       12.13073
C          2.83482        0.08829       12.95316
C          2.35074       -0.01526       14.30866
C          0.93716        0.04170       14.57711
C          0.01567        0.23398       13.48118
N          4.22579        0.16536       12.97280
C          4.62281        0.03881       14.28880
C          3.47556       -0.07820       15.12458
C          5.82092        0.02806       15.00746
C          5.59035       -0.10794       16.39672
S          3.87311       -0.21569       16.81918
C          6.75254       -0.14679       17.19232
C          7.89765       -0.01996       16.39549
S          7.52942        0.09756       14.67480
N         -1.25271        0.33834       13.85838
S         -1.26866        0.19354       15.50672
N          0.35353       -0.00387       15.76801
C          9.30386       -0.11238       16.81438
C         10.11718        0.94425       17.14843
C         11.50412        0.95856       17.55496
C         11.87787        2.36210       17.81370
C         10.76954        3.20745       17.57265
C          9.62328        2.37167       17.14948
C         10.81504        4.58678       17.72955
C         12.01749        5.15322       18.14426
C         13.12668        4.33498       18.38917
C         13.08162        2.94985       18.23278
F         14.27733        4.91032       18.78957
F         12.12434        6.48970       18.31405
C         12.37379       -0.16362       17.68713
C         13.73284       -0.07218       18.08942
N         14.85809       -0.05770       18.41571
O          8.50027        2.76214       16.86066
C          6.77621       -0.29180       18.69192
C          5.08878        0.78859       11.95495
C          3.24571       -0.72620        9.82901
C         -3.11424        0.40355        7.08545
O          2.01086        0.30342        4.39218
C         -2.07723       -1.00606        2.12859
C         -2.59793       -1.14982        0.80121
N         -3.07585       -1.29339       -0.25197
F          3.34572        1.57462       -0.65388
F          1.02779        1.08896       -1.93534
C         11.98874       -1.50515       17.42633
N         11.72773       -2.63019       17.22493
C         -2.87543       -1.69432        3.10115
N         -3.55327       -2.29909        3.83132
H         13.97794        2.38710       18.44147
H          9.95070        5.20934       17.53874
H          9.69282       -1.12269       16.83165
H          7.80003       -0.34925       19.05725
H          6.24985       -1.19786       19.00363
H          6.29121        0.56312       19.17061
H          5.66589        1.58434       12.42329
H          4.46924        1.24079       11.18761
H          5.76497        0.05994       11.51145
H          2.85929       -1.51426        9.18460
H          3.88202       -1.19563       10.57213
H          3.82289       -0.02137        9.23273
H         -3.32002        1.07619        6.25207
H         -3.59649        0.82642        7.96630
H         -3.58925       -0.55809        6.87871
H         -2.08388       -0.19455        4.81749
H          3.34243        1.12080        1.93526
H         -0.93018        0.21355       -0.51495

  eps=3.36
  epsinf=3.36
  RSolv=7.28

