%mem=700MW
%nprocshared=16
#p wB97XD/6-31g** td=(nstates=1) scf=(MaxCycle=20000,verytight) iop(3/107=0016000000,3/108=0016000000) nosymm pop=esp SCRF=(PCM,Solvent=Generic,Read)

 Y6

0  1
C       -0.145667000      0.165616000     -0.026252000
C       -0.055188000      0.036510000      1.364689000
C        1.162762000      0.330302000      2.006496000
C        2.299960000      0.732231000      1.315445000
C        2.198856000      0.857742000     -0.066638000
C        0.988669000      0.581242000     -0.720151000
C       -1.040371000     -0.397156000      2.387561000
C       -0.430812000     -0.194236000      3.697554000
C        0.999548000      0.152073000      3.472846000
C       -1.121605000     -0.157066000      4.905154000
C       -0.741558000     -0.011048000      6.264707000
S        0.915137000     -0.090388000      6.904552000
C        0.316758000      0.023698000      8.533463000
C       -1.090338000      0.164560000      8.560417000
C       -1.706515000      0.148388000      7.307071000
S       -1.743497000      0.349947000     10.202791000
C       -0.118200000      0.235950000     10.834844000
C        0.864407000      0.074994000      9.822709000
N        2.114855000     -0.029412000     10.400303000
C        1.943362000      0.100415000     11.782367000
C        0.531766000      0.221363000     12.065814000
C        2.878959000      0.168821000     12.830599000
C        2.433608000      0.075823000     14.201973000
C        1.026470000      0.095402000     14.505276000
C        0.069013000      0.233386000     13.429153000
N        4.273070000      0.275463000     12.817891000
C        4.702090000      0.182798000     14.127376000
C        3.581335000      0.052690000     14.989368000
C        5.921237000      0.213060000     14.818777000
C        5.730803000      0.092077000     16.214195000
S        4.020917000     -0.052666000     16.677467000
C        6.906278000      0.091100000     16.968525000
C        8.057971000      0.206078000     16.127198000
S        7.606729000      0.339507000     14.410630000
N       -1.191715000      0.303974000     13.837687000
S       -1.160954000      0.194638000     15.490688000
N        0.475280000      0.056890000     15.712073000
C        9.374335000      0.220728000     16.659374000
C       10.651298000      0.330850000     16.112864000
C       11.905841000      0.264200000     16.858709000
C       12.988176000      0.742579000     15.958476000
C       12.446848000      0.966738000     14.679362000
C       10.989283000      0.690833000     14.709362000
C       13.210673000      1.391709000     13.598471000
C       14.566341000      1.610123000     13.819401000
C       15.121976000      1.400854000     15.090508000
C       14.354964000      0.964687000     16.168749000
F       16.433007000      1.630627000     15.265528000
F       15.360244000      2.028902000     12.820587000
C       12.112410000     -0.232356000     18.147427000
C       13.373265000     -0.203819000     18.819986000
N       14.367868000     -0.203900000     19.431459000
O       10.233828000      0.772736000     13.748259000
C        6.951106000     -0.021426000     18.472309000
C        5.093085000      0.905501000     11.771281000
C        3.231855000     -0.702893000      9.718371000
C       -3.192205000      0.289395000      7.083614000
O        1.882708000      0.291945000      4.309836000
C       -2.275819000     -0.984475000      2.109907000
C       -2.828169000     -1.094288000      0.796470000
N       -3.337589000     -1.205856000     -0.248099000
F        3.257428000      1.251419000     -0.793113000
F        0.929765000      0.724234000     -2.053494000
C       11.119409000     -0.892376000     18.935002000
N       10.379394000     -1.466362000     19.632242000
C       -3.101291000     -1.621713000      3.087977000
N       -3.811960000     -2.186295000      3.822386000
H       14.847357000      0.826974000     17.118183000
H       12.777431000      1.551120000     12.620162000
H        9.357121000      0.099549000     17.734555000
H        7.464758000     -0.931515000     18.786470000
H        5.946543000     -0.049611000     18.893227000
H        7.467678000      0.830844000     18.920226000
H        5.661450000      1.724309000     12.210484000
H        4.443953000      1.328216000     11.011201000
H        5.778377000      0.188446000     11.321501000
H        2.838411000     -1.518144000      9.112415000
H        3.897858000     -1.135928000     10.457876000
H        3.782441000     -0.012156000      9.081447000
H       -3.621536000     -0.630393000      6.681450000
H       -3.414033000      1.100093000      6.385780000
H       -3.708294000      0.510519000      8.017243000
H       -2.196985000     -0.229308000      4.804908000
H        3.232293000      0.944479000      1.821289000
H       -1.045760000     -0.027456000     -0.588393000

eps=3.36
epsinf=3.36
RSolv=7.28

