%mem=700MW
%nprocshared=16
#p wB97XD/6-31g** td=(nstates=1) scf=(MaxCycle=20000,verytight) iop(3/107=0016000000,3/108=0016000000) nosymm pop=esp SCRF=(PCM,Solvent=Generic,Read)

 Y6

0  1
C       -0.146526000      0.120913000     -0.023720000
C       -0.056791000     -0.003586000      1.367693000
C        1.164260000      0.280761000      2.007950000
C        2.305066000      0.668783000      1.314925000
C        2.204611000      0.790056000     -0.067595000
C        0.991548000      0.522847000     -0.719602000
C       -1.046009000     -0.422467000      2.392753000
C       -0.434555000     -0.218358000      3.701653000
C        0.999795000      0.110322000      3.475185000
C       -1.125711000     -0.162642000      4.908259000
C       -0.744108000     -0.012049000      6.267031000
S        0.910290000     -0.118645000      6.908325000
C        0.313763000      0.020741000      8.535871000
C       -1.090199000      0.189697000      8.560962000
C       -1.706159000      0.174814000      7.307361000
S       -1.739496000      0.405092000     10.201282000
C       -0.116408000      0.268156000     10.834729000
C        0.862451000      0.075709000      9.824586000
N        2.111060000     -0.044421000     10.402908000
C        1.943205000      0.108797000     11.783082000
C        0.534320000      0.259926000     12.065460000
C        2.881124000      0.178339000     12.829105000
C        2.436029000      0.122275000     14.202645000
C        1.029796000      0.171829000     14.506593000
C        0.073425000      0.304067000     13.428757000
N        4.277129000      0.257524000     12.812512000
C        4.705794000      0.184618000     14.123408000
C        3.584289000      0.096771000     14.989486000
C        5.926741000      0.201821000     14.811834000
C        5.736622000      0.126264000     16.210730000
S        4.024875000      0.026708000     16.679417000
C        6.913833000      0.127427000     16.962977000
C        8.064069000      0.201840000     16.116476000
S        7.612642000      0.291091000     14.398349000
N       -1.185569000      0.402488000     13.836922000
S       -1.154667000      0.324967000     15.491699000
N        0.479409000      0.165756000     15.714388000
C        9.384211000      0.135895000     16.635770000
C       10.655985000      0.290418000     16.090300000
C       11.913212000      0.164843000     16.822495000
C       12.983365000      0.757043000     15.978446000
C       12.437888000      1.088416000     14.724267000
C       10.986925000      0.773884000     14.722245000
C       13.193101000      1.631718000     13.691684000
C       14.542491000      1.862237000     13.938157000
C       15.100710000      1.549986000     15.186805000
C       14.342945000      0.994359000     16.215766000
F       16.404726000      1.797135000     15.388705000
F       15.327290000      2.391530000     12.985746000
C       12.127065000     -0.471608000     18.046671000
C       13.385436000     -0.494033000     18.723736000
N       14.380550000     -0.540679000     19.332599000
O       10.232294000      0.913314000     13.767492000
C        6.962629000      0.057955000     18.469528000
C        5.106411000      0.857712000     11.755313000
C        3.214716000     -0.748029000      9.729586000
C       -3.188701000      0.342833000      7.081623000
O        1.884798000      0.243634000      4.311240000
C       -2.286807000     -1.000186000      2.118825000
C       -2.840410000     -1.112866000      0.806172000
N       -3.350852000     -1.226052000     -0.237727000
F        3.266704000      1.170604000     -0.795958000
F        0.933499000      0.661524000     -2.053443000
C       11.143346000     -1.245193000     18.737333000
N       10.406350000     -1.916908000     19.344619000
C       -3.117413000     -1.624149000      3.101153000
N       -3.832534000     -2.177499000      3.839763000
H       14.835142000      0.782827000     17.151767000
H       12.758451000      1.870568000     12.730321000
H        9.373972000     -0.047718000     17.702197000
H        7.375408000     -0.894388000     18.808418000
H        5.965816000      0.156257000     18.898249000
H        7.575952000      0.860218000     18.885389000
H        5.687620000      1.674801000     12.180718000
H        4.463525000      1.278052000     10.988688000
H        5.780455000      0.123076000     11.317078000
H        2.805341000     -1.563277000      9.134264000
H        3.872306000     -1.184458000     10.474595000
H        3.778432000     -0.076421000      9.083810000
H       -3.638232000     -0.577215000      6.702604000
H       -3.393613000      1.140633000      6.364179000
H       -3.698778000      0.598428000      8.009775000
H       -2.202026000     -0.218826000      4.807693000
H        3.239626000      0.873888000      1.819585000
H       -1.048718000     -0.065414000     -0.584783000

eps=3.36
epsinf=3.36
RSolv=7.28

