%mem=700MW
%nprocshared=16
#p wB97XD/6-31g** td=(nstates=1) scf=(MaxCycle=20000,verytight) iop(3/107=0016000000,3/108=0016000000) nosymm pop=esp SCRF=(PCM,Solvent=Generic,Read)

 Y6

0  1
C       -0.562578000     -0.510163000     -0.073986000
C       -0.444380000     -0.577153000      1.320056000
C        0.832663000     -0.652539000      1.905808000
C        2.002909000     -0.691171000      1.152242000
C        1.874317000     -0.632119000     -0.229096000
C        0.605665000     -0.532588000     -0.827998000
C       -1.464357000     -0.604724000      2.397413000
C       -0.746638000     -0.467599000      3.676871000
C        0.705151000     -0.649768000      3.384916000
C       -1.314574000     -0.046608000      4.858956000
C       -0.821193000      0.176095000      6.182208000
S        0.765295000     -0.327692000      6.797155000
C        0.348665000      0.224116000      8.383378000
C       -0.936570000      0.794946000      8.419449000
C       -1.615198000      0.781991000      7.187899000
S       -1.390715000      1.416674000     10.015329000
C        0.166550000      0.910861000     10.623752000
C        0.982046000      0.306479000      9.643339000
N        2.182624000     -0.075969000     10.200310000
C        2.154821000      0.310902000     11.540857000
C        0.871971000      0.888995000     11.831646000
C        3.146610000      0.257481000     12.548773000
C        2.786729000      0.506503000     13.924024000
C        1.466248000      0.980747000     14.248944000
C        0.524067000      1.238281000     13.183913000
N        4.508741000     -0.028571000     12.482202000
C        4.988886000     -0.032567000     13.775821000
C        3.935392000      0.287763000     14.678084000
C        6.216177000     -0.216990000     14.417900000
C        6.099025000     -0.052590000     15.818150000
S        4.454957000      0.348080000     16.344241000
C        7.293104000     -0.242763000     16.542062000
C        8.356668000     -0.512248000     15.670760000
S        7.852768000     -0.624479000     13.985328000
N       -0.633499000      1.737012000     13.600603000
S       -0.528370000      1.863464000     15.247028000
N        1.006607000      1.281974000     15.456849000
C        9.736526000     -0.886469000     16.018844000
C       10.772405000     -0.008825000     16.227906000
C       12.139620000     -0.251698000     16.631414000
C       12.815951000      1.056320000     16.719852000
C       11.916185000      2.087951000     16.361753000
C       10.608780000      1.479159000     16.031920000
C       12.264102000      3.432408000     16.347119000
C       13.567126000      3.767733000     16.704351000
C       14.473509000      2.763532000     17.064552000
C       14.125245000      1.413141000     17.080298000
F       15.726233000      3.120866000     17.407840000
F       13.967664000      5.058083000     16.707909000
C       12.744094000     -1.514066000     16.899989000
C       14.104302000     -1.680918000     17.273079000
N       15.216951000     -1.879826000     17.581516000
O        9.596787000      2.065269000     15.671977000
C        7.429860000     -0.133804000     18.038725000
C        5.396889000      0.160050000     11.323288000
C        3.033482000     -1.111898000      9.592984000
C       -3.004564000      1.341793000      6.997742000
O        1.624629000     -0.748970000      4.184273000
C       -2.812973000     -0.846113000      2.216740000
C       -3.434329000     -0.973986000      0.931678000
N       -3.999675000     -1.082427000     -0.081625000
F        2.958636000     -0.659013000     -1.014349000
F        0.532105000     -0.455277000     -2.163097000
C       12.060146000     -2.755630000     16.819212000
N       11.544644000     -3.807336000     16.769852000
C       -3.737690000     -1.078400000      3.287661000
N       -4.537308000     -1.303666000      4.105060000
H       14.878261000      0.697396000     17.371202000
H       11.554223000      4.199803000     16.068258000
H        9.873086000     -1.944173000     16.206509000
H        6.665296000     -0.728582000     18.544556000
H        7.318295000      0.904917000     18.361530000
H        8.407442000     -0.485443000     18.364421000
H        6.222741000      0.805501000     11.617340000
H        4.853759000      0.665884000     10.531493000
H        5.789318000     -0.790061000     10.965086000
H        2.396247000     -1.839481000      9.093272000
H        3.577026000     -1.636972000     10.371899000
H        3.727818000     -0.683668000      8.872087000
H       -3.752944000      0.547004000      7.040368000
H       -3.110667000      1.862367000      6.046117000
H       -3.239397000      2.060034000      7.783175000
H       -2.364724000      0.205399000      4.787206000
H        2.978662000     -0.760589000      1.613457000
H       -1.503797000     -0.424282000     -0.593774000

eps=3.36
epsinf=3.36
RSolv=7.28

