%mem=700MW
%nprocshared=16
#p wB97XD/6-31g** td=(nstates=1) scf=(MaxCycle=20000,verytight) iop(3/107=0016000000,3/108=0016000000) nosymm pop=esp SCRF=(PCM,Solvent=Generic,Read)

 Y6

0  1
C       -0.791643000     -0.631770000     -0.102512000
C       -0.650114000     -0.693874000      1.289369000
C        0.636025000     -0.780653000      1.853079000
C        1.792418000     -0.835444000      1.079794000
C        1.640733000     -0.780818000     -0.299598000
C        0.363275000     -0.670009000     -0.876773000
C       -1.651268000     -0.703484000      2.385315000
C       -0.910621000     -0.568225000      3.650031000
C        0.533275000     -0.768868000      3.334101000
C       -1.452883000     -0.134799000      4.841863000
C       -0.930420000      0.096804000      6.150265000
S        0.669029000     -0.402581000      6.735861000
C        0.295230000      0.184408000      8.321071000
C       -0.988527000      0.762579000      8.377105000
C       -1.697848000      0.725102000      7.166291000
S       -1.393115000      1.429065000      9.969070000
C        0.178483000      0.931060000     10.545793000
C        0.962181000      0.293966000      9.558013000
N        2.179342000     -0.076346000     10.091122000
C        2.195157000      0.356349000     11.417591000
C        0.921089000      0.947816000     11.729787000
C        3.219194000      0.338828000     12.391867000
C        2.909428000      0.645703000     13.766341000
C        1.601367000      1.134219000     14.118160000
C        0.620290000      1.348764000     13.078423000
N        4.580940000      0.048365000     12.292256000
C        5.105219000      0.104862000     13.564996000
C        4.086452000      0.460881000     14.488184000
C        6.362245000     -0.041776000     14.172529000
C        6.294838000      0.179743000     15.560713000
S        4.671932000      0.604878000     16.128640000
C        7.516590000      0.001822000     16.257109000
C        8.547476000     -0.281614000     15.362592000
S        7.982047000     -0.474976000     13.703667000
N       -0.521712000      1.865535000     13.515965000
S       -0.356303000      2.059747000     15.151448000
N        1.185742000      1.485812000     15.328645000
C        9.932541000     -0.698137000     15.671114000
C       10.925867000      0.102089000     16.156178000
C       12.239391000     -0.252313000     16.679368000
C       12.866050000      0.984537000     17.160601000
C       12.028746000      2.094159000     16.884345000
C       10.802316000      1.612158000     16.217022000
C       12.366575000      3.403372000     17.208000000
C       13.587526000      3.620106000     17.836736000
C       14.432053000      2.536070000     18.120844000
C       14.098567000      1.224506000     17.796078000
F       15.607697000      2.782462000     18.728240000
F       13.974246000      4.867741000     18.176736000
C       12.818078000     -1.549680000     16.717304000
C       14.057587000     -1.844780000     17.347522000
N       15.068529000     -2.144903000     17.856933000
O        9.880178000      2.291564000     15.791147000
C        7.676770000      0.134943000     17.749733000
C        5.426604000      0.169562000     11.094329000
C        2.996907000     -1.149010000      9.501073000
C       -3.089957000      1.283992000      6.994347000
O        1.465429000     -0.877306000      4.117730000
C       -3.006597000     -0.927894000      2.227697000
C       -3.650233000     -1.053091000      0.953698000
N       -4.233399000     -1.158387000     -0.049957000
F        2.711417000     -0.822998000     -1.103210000
F        0.266816000     -0.597398000     -2.210920000
C       12.240405000     -2.698874000     16.113348000
N       11.816320000     -3.677549000     15.627912000
C       -3.916313000     -1.144459000      3.314237000
N       -4.705595000     -1.356368000      4.145303000
H       14.801083000      0.444577000     18.045204000
H       11.709513000      4.232006000     16.978937000
H       10.062100000     -1.773820000     15.698488000
H        6.887255000     -0.411118000     18.272069000
H        7.621184000      1.182767000     18.056068000
H        8.636365000     -0.262224000     18.076386000
H        6.270351000      0.817539000     11.325832000
H        4.859875000      0.643029000     10.299007000
H        5.795347000     -0.801764000     10.768712000
H        2.334441000     -1.887227000      9.052005000
H        3.557449000     -1.648993000     10.284591000
H        3.674422000     -0.761389000      8.742167000
H       -3.834585000      0.484944000      7.008207000
H       -3.195358000      1.834857000      6.059306000
H       -3.331167000      1.974107000      7.802385000
H       -2.502085000      0.126288000      4.788377000
H        2.775067000     -0.913566000      1.524743000
H       -1.740763000     -0.538093000     -0.606292000

eps=3.36
epsinf=3.36
RSolv=7.28

