%mem=700MW
%nprocshared=16
#p wB97XD/6-31g** td=(nstates=1) scf=(MaxCycle=20000,verytight) iop(3/107=0016000000,3/108=0016000000) nosymm pop=esp SCRF=(PCM,Solvent=Generic,Read)

 Y6

0  1
C       -0.164738000     -0.024351000     -0.025868000
C       -0.075124000     -0.114009000      1.368306000
C        1.147692000      0.180288000      2.000524000
C        2.290280000      0.544651000      1.297665000
C        2.189892000      0.631405000     -0.087345000
C        0.975110000      0.354089000     -0.731953000
C       -1.065855000     -0.501757000      2.404339000
C       -0.451601000     -0.269744000      3.707524000
C        0.983557000      0.047759000      3.471544000
C       -1.139323000     -0.185409000      4.914495000
C       -0.753537000     -0.005827000      6.268643000
S        0.903670000     -0.092685000      6.906237000
C        0.312062000      0.074920000      8.532707000
C       -1.092465000      0.237517000      8.559792000
C       -1.712617000      0.197115000      7.308722000
S       -1.737643000      0.473717000     10.198838000
C       -0.112118000      0.351526000     10.829191000
C        0.864680000      0.151002000      9.818760000
N        2.115003000      0.040872000     10.395073000
C        1.950014000      0.205012000     11.774151000
C        0.541508000      0.355635000     12.058427000
C        2.889666000      0.278106000     12.818497000
C        2.446685000      0.221064000     14.192409000
C        1.041096000      0.273548000     14.498795000
C        0.083063000      0.405104000     13.422355000
N        4.285913000      0.354478000     12.799582000
C        4.716754000      0.275623000     14.109553000
C        3.596301000      0.188239000     14.976980000
C        5.939031000      0.275360000     14.796317000
C        5.749957000      0.186875000     16.195404000
S        4.038692000      0.100393000     16.665581000
C        6.928560000      0.161611000     16.945989000
C        8.075477000      0.240342000     16.099031000
S        7.624969000      0.366036000     14.385448000
N       -1.175096000      0.505911000     13.832488000
S       -1.141425000      0.431517000     15.487366000
N        0.492789000      0.270406000     15.707550000
C        9.395767000      0.066308000     16.594224000
C       10.661944000      0.288123000     16.062732000
C       11.920760000     -0.003853000     16.737975000
C       12.992436000      0.739278000     16.027060000
C       12.441338000      1.334673000     14.876260000
C       10.986301000      1.036740000     14.816548000
C       13.198239000      2.075213000     13.976167000
C       14.552809000      2.231999000     14.252667000
C       15.116141000      1.653271000     15.400013000
C       14.357064000      0.900967000     16.294301000
F       16.425454000      1.832860000     15.636201000
F       15.337441000      2.941574000     13.425352000
C       12.124218000     -0.894863000     17.793416000
C       13.379469000     -1.074179000     18.452151000
N       14.372961000     -1.257165000     19.037519000
O       10.225377000      1.373672000     13.918388000
C        6.987353000      0.063224000     18.450821000
C        5.113293000      0.957487000     11.742340000
C        3.221423000     -0.660098000      9.723891000
C       -3.196886000      0.353764000      7.086176000
O        1.869913000      0.199097000      4.303170000
C       -2.310257000     -1.078250000      2.144971000
C       -2.865567000     -1.219446000      0.835751000
N       -3.378225000     -1.355032000     -0.204373000
F        3.253642000      0.987395000     -0.825607000
F        0.917331000      0.459469000     -2.068822000
C       11.126502000     -1.791094000     18.289463000
N       10.371882000     -2.569968000     18.722147000
C       -3.145191000     -1.672552000      3.141914000
N       -3.864689000     -2.202914000      3.892997000
H       14.852388000      0.484308000     17.157338000
H       12.761866000      2.518251000     13.091015000
H        9.391571000     -0.258877000     17.626725000
H        7.345442000     -0.919178000     18.768154000
H        6.002528000      0.212471000     18.892589000
H        7.653490000      0.818868000     18.871910000
H        5.693014000      1.775691000     12.167638000
H        4.468774000      1.376496000     10.976318000
H        5.788483000      0.224540000     11.302981000
H        2.815423000     -1.479062000      9.131486000
H        3.880966000     -1.091328000     10.470226000
H        3.782075000      0.011788000      9.075688000
H       -3.645099000     -0.577537000      6.734082000
H       -3.408588000      1.131793000      6.349370000
H       -3.703033000      0.632188000      8.009939000
H       -2.215975000     -0.242370000      4.818608000
H        3.225910000      0.757496000      1.797048000
H       -1.067796000     -0.220472000     -0.582197000

eps=3.36
epsinf=3.36
RSolv=7.28

