%mem=700MW
%nprocshared=16
#p wB97XD/6-31g** td=(nstates=1) scf=(MaxCycle=20000,verytight) iop(3/107=0016000000,3/108=0016000000) nosymm pop=esp SCRF=(PCM,Solvent=Generic,Read)

 Y6

0  1
C       -0.182255000     -0.066093000     -0.030549000
C       -0.093477000     -0.146870000      1.364262000
C        1.135343000      0.127919000      1.993551000
C        2.284360000      0.464851000      1.287418000
C        2.184664000      0.543424000     -0.098041000
C        0.964219000      0.284998000     -0.739938000
C       -1.091157000     -0.506614000      2.403810000
C       -0.470742000     -0.278377000      3.705060000
C        0.970235000      0.008954000      3.465606000
C       -1.154942000     -0.170653000      4.911882000
C       -0.763139000      0.008789000      6.264558000
S        0.892236000     -0.115053000      6.900552000
C        0.307265000      0.076186000      8.526680000
C       -1.092771000      0.273298000      8.554603000
C       -1.715408000      0.241194000      7.304384000
S       -1.729612000      0.536398000     10.192557000
C       -0.106420000      0.380968000     10.821454000
C        0.863599000      0.148495000      9.811541000
N        2.112204000      0.015282000     10.386992000
C        1.953554000      0.197736000     11.764329000
C        0.549638000      0.383181000     12.049604000
C        2.897205000      0.263441000     12.805550000
C        2.457235000      0.236364000     14.181035000
C        1.053866000      0.323631000     14.489775000
C        0.095997000      0.460597000     13.413752000
N        4.294951000      0.308985000     12.781384000
C        4.727511000      0.241088000     14.091185000
C        3.608530000      0.192270000     14.963132000
C        5.952000000      0.226877000     14.774867000
C        5.765900000      0.174602000     16.175705000
S        4.055090000      0.129970000     16.651967000
C        6.947566000      0.148132000     16.924138000
C        8.090621000      0.200415000     16.074332000
S        7.637446000      0.273025000     14.360249000
N       -1.158580000      0.594787000     13.825344000
S       -1.122108000      0.543644000     15.481026000
N        0.508730000      0.350006000     15.699728000
C        9.411861000     -0.021851000     16.558777000
C       10.674116000      0.274792000     16.061339000
C       11.936654000     -0.044734000     16.717811000
C       12.995916000      0.767994000     16.068525000
C       12.437871000      1.438984000     14.963318000
C       10.987762000      1.124243000     14.876119000
C       13.184896000      2.256397000     14.123597000
C       14.536130000      2.413737000     14.415490000
C       15.105548000      1.762370000     15.520069000
C       14.356695000      0.933686000     16.353420000
F       16.410744000      1.946715000     15.774673000
F       15.311502000      3.194461000     13.645337000
C       12.151683000     -1.004801000     17.708703000
C       13.409654000     -1.214283000     18.352984000
N       14.406226000     -1.426358000     18.923202000
O       10.222467000      1.518144000     14.006128000
C        7.012980000      0.077290000     18.430421000
C        5.129730000      0.886974000     11.715559000
C        3.201630000     -0.717557000      9.721862000
C       -3.195985000      0.432091000      7.083787000
O        1.860140000      0.149002000      4.295343000
C       -2.347191000     -1.058871000      2.149729000
C       -2.907045000     -1.197544000      0.842063000
N       -3.424207000     -1.329506000     -0.196233000
F        3.254580000      0.872833000     -0.839559000
F        0.907707000      0.381803000     -2.077443000
C       11.163497000     -1.941685000     18.144713000
N       10.414931000     -2.752476000     18.526566000
C       -3.193745000     -1.628189000      3.151618000
N       -3.923754000     -2.137737000      3.906856000
H       14.855710000      0.464343000     17.186894000
H       12.743268000      2.755931000     13.271764000
H        9.403873000     -0.419771000     17.565685000
H        7.328767000     -0.914664000     18.764857000
H        6.038746000      0.277666000     18.875690000
H        7.715445000      0.809985000     18.832044000
H        5.722997000      1.701103000     12.129963000
H        4.490149000      1.306701000     10.945781000
H        5.792566000      0.138770000     11.283352000
H        2.776524000     -1.534765000      9.140498000
H        3.853543000     -1.153834000     10.471995000
H        3.774966000     -0.065562000      9.064587000
H       -3.670087000     -0.495611000      6.756874000
H       -3.390762000      1.197509000      6.329517000
H       -3.689822000      0.746943000      8.002539000
H       -2.232775000     -0.203637000      4.817986000
H        3.224287000      0.663038000      1.784699000
H       -1.089176000     -0.248816000     -0.585133000

eps=3.36
epsinf=3.36
RSolv=7.28

