%mem=700MW
%nprocshared=16
#p wB97XD/6-31g** td=(nstates=1) scf=(MaxCycle=20000,verytight) iop(3/107=0016000000,3/108=0016000000) nosymm pop=esp SCRF=(PCM,Solvent=Generic,Read)

 Y6

0  1
C       -0.128635000     -0.182789000     -0.016817000
C       -0.069718000     -0.276891000      1.379135000
C        1.182183000     -0.244850000      2.020871000
C        2.382449000     -0.143189000      1.325482000
C        2.312665000     -0.053204000     -0.059963000
C        1.070463000     -0.066727000     -0.714528000
C       -1.128773000     -0.436036000      2.408801000
C       -0.485408000     -0.316146000      3.719304000
C        0.985954000     -0.316349000      3.491153000
C       -1.145745000     -0.071321000      4.914235000
C       -0.736835000      0.081199000      6.267046000
S        0.887098000     -0.231939000      6.917108000
C        0.331652000      0.101628000      8.527628000
C       -1.033530000      0.467364000      8.543190000
C       -1.653423000      0.466849000      7.290156000
S       -1.635042000      0.863713000     10.165805000
C       -0.042134000      0.540823000     10.805794000
C        0.893315000      0.156273000      9.812750000
N        2.119043000     -0.092427000     10.399039000
C        1.984313000      0.166111000     11.764584000
C        0.611357000      0.519880000     12.036707000
C        2.931475000      0.172531000     12.808364000
C        2.491214000      0.253905000     14.179511000
C        1.105371000      0.505652000     14.477740000
C        0.168713000      0.703239000     13.393307000
N        4.327291000      0.071500000     12.791995000
C        4.748798000      0.025530000     14.102796000
C        3.631645000      0.128523000     14.970619000
C        5.971481000     -0.050674000     14.795246000
C        5.781437000      0.002507000     16.188457000
S        4.076882000      0.124067000     16.661098000
C        6.969058000     -0.041394000     16.952546000
C        8.093142000     -0.113898000     16.114839000
S        7.660247000     -0.178993000     14.403867000
N       -1.063762000      0.991460000     13.793335000
S       -1.032699000      1.003725000     15.449297000
N        0.566326000      0.641260000     15.683163000
C        9.455679000     -0.331199000     16.566134000
C       10.630619000      0.237283000     16.129412000
C       11.985445000     -0.125074000     16.536393000
C       12.897040000      0.929895000     16.048180000
C       12.160784000      1.873607000     15.300710000
C       10.726758000      1.490306000     15.297894000
C       12.744361000      2.977550000     14.691082000
C       14.116978000      3.146752000     14.842814000
C       14.865117000      2.223834000     15.588912000
C       14.280532000      1.113827000     16.194309000
F       16.187341000      2.424512000     15.719431000
F       14.741344000      4.197450000     14.280809000
C       12.376644000     -1.295173000     17.208058000
C       13.714761000     -1.564101000     17.622368000
N       14.789285000     -1.837533000     17.992586000
O        9.818984000      2.115193000     14.771600000
C        7.027299000      0.000335000     18.460052000
C        5.226103000      0.472738000     11.698371000
C        3.130002000     -0.950508000      9.761419000
C       -3.100205000      0.829880000      7.060009000
O        1.877820000     -0.345692000      4.329177000
C       -2.457307000     -0.746441000      2.143256000
C       -3.016117000     -0.800754000      0.827136000
N       -3.536293000     -0.851836000     -0.215822000
F        3.431422000      0.055291000     -0.791556000
F        1.048600000      0.037769000     -2.051448000
C       11.498701000     -2.377991000     17.513687000
N       10.839261000     -3.304975000     17.783776000
C       -3.411482000     -1.126837000      3.139888000
N       -4.235664000     -1.475842000      3.888156000
H       14.915843000      0.448626000     16.757878000
H       12.161332000      3.685045000     14.116637000
H        9.518794000     -1.037907000     17.384460000
H        6.867317000     -0.995120000     18.886052000
H        6.257168000      0.662301000     18.861418000
H        7.991463000      0.367937000     18.810773000
H        5.939082000      1.204167000     12.075845000
H        4.650115000      0.953245000     10.914005000
H        5.764602000     -0.383480000     11.295083000
H        2.624649000     -1.727595000      9.189884000
H        3.720940000     -1.441609000     10.527875000
H        3.776542000     -0.376136000      9.099843000
H       -3.684440000     -0.044869000      6.767893000
H       -3.202809000      1.586315000      6.279354000
H       -3.547420000      1.236814000      7.966151000
H       -2.214300000      0.068059000      4.813418000
H        3.338136000     -0.129270000      1.831751000
H       -1.048133000     -0.182599000     -0.580922000

eps=3.36
epsinf=3.36
RSolv=7.28

