%mem=700MW
%nprocshared=16
#p wB97XD/6-31g** td=(nstates=1) scf=(MaxCycle=20000,verytight) iop(3/107=0016000000,3/108=0016000000) nosymm pop=esp SCRF=(PCM,Solvent=Generic,Read)

 Y6

0  1
C        0.000399000     -0.162564000      0.026569000
C        0.041523000     -0.285460000      1.421197000
C        1.285381000     -0.319429000      2.077891000
C        2.497025000     -0.259638000      1.395440000
C        2.445265000     -0.143592000      0.012283000
C        1.209851000     -0.087658000     -0.656284000
C       -1.035014000     -0.419197000      2.434868000
C       -0.400459000     -0.321616000      3.758306000
C        1.073101000     -0.398968000      3.545134000
C       -1.060394000     -0.019693000      4.932784000
C       -0.657938000      0.140540000      6.291396000
S        0.928487000     -0.276486000      6.967731000
C        0.384506000      0.143136000      8.557756000
C       -0.945852000      0.612190000      8.549766000
C       -1.553683000      0.618368000      7.286626000
S       -1.527670000      1.105452000     10.151110000
C        0.029601000      0.679771000     10.817352000
C        0.939192000      0.192453000      9.850441000
N        2.135696000     -0.134350000     10.455417000
C        2.010148000      0.177643000     11.809315000
C        0.671186000      0.646578000     12.057679000
C        2.949175000      0.141006000     12.863428000
C        2.506636000      0.293177000     14.226285000
C        1.141887000      0.659096000     14.503152000
C        0.233987000      0.902663000     13.404267000
N        4.331574000     -0.065665000     12.859569000
C        4.740493000     -0.108953000     14.173482000
C        3.628976000      0.102681000     15.030883000
C        5.950528000     -0.254349000     14.875828000
C        5.758025000     -0.142590000     16.262707000
S        4.066312000      0.112477000     16.722217000
C        6.944822000     -0.230391000     17.038749000
C        8.046025000     -0.440866000     16.216735000
S        7.632505000     -0.512978000     14.506808000
N       -0.974869000      1.298557000     13.784073000
S       -0.956921000      1.350987000     15.438441000
N        0.604782000      0.868568000     15.698789000
C        9.450609000     -0.630402000     16.635461000
C       10.529498000      0.125040000     16.275645000
C       11.954590000     -0.149270000     16.454155000
C       12.693033000      0.959692000     15.839092000
C       11.790215000      1.944320000     15.368263000
C       10.409262000      1.503813000     15.651335000
C       12.199506000      3.116692000     14.742457000
C       13.564234000      3.315573000     14.570363000
C       14.477293000      2.349243000     15.022038000
C       14.071366000      1.177347000     15.651655000
F       15.790690000      2.572804000     14.832185000
F       14.026500000      4.431458000     13.969638000
C       12.533615000     -1.277187000     17.090362000
C       13.935555000     -1.474293000     17.230349000
N       15.077353000     -1.688306000     17.376411000
O        9.383792000      2.138113000     15.455005000
C        7.010313000     -0.104948000     18.540325000
C        5.265969000      0.239643000     11.764010000
C        3.078821000     -1.092771000      9.856070000
C       -2.969235000      1.078515000      7.033383000
O        1.951288000     -0.483659000      4.392099000
C       -2.360706000     -0.704228000      2.159388000
C       -2.904664000     -0.767995000      0.835563000
N       -3.409996000     -0.826814000     -0.213207000
F        3.573322000     -0.073652000     -0.706510000
F        1.209061000      0.043741000     -1.989624000
C       11.793677000     -2.336154000     17.684195000
N       11.243572000     -3.237193000     18.192228000
C       -3.332504000     -1.048259000      3.154810000
N       -4.168079000     -1.366154000      3.902865000
H       14.830359000      0.479678000     15.968993000
H       11.486977000      3.854427000     14.397666000
H        9.623324000     -1.587184000     17.113910000
H        6.528987000     -0.957962000     19.027477000
H        6.503524000      0.803709000     18.875401000
H        8.043803000     -0.058926000     18.881890000
H        6.018255000      0.937859000     12.127454000
H        4.729807000      0.728425000     10.957067000
H        5.753606000     -0.662128000     11.397533000
H        2.514366000     -1.851148000      9.315416000
H        3.630186000     -1.596105000     10.643619000
H        3.767357000     -0.597306000      9.173516000
H       -3.613462000      0.239553000      6.763816000
H       -3.012647000      1.817052000      6.230932000
H       -3.391512000      1.542109000      7.923904000
H       -2.119234000      0.173776000      4.815792000
H        3.447193000     -0.297177000      1.910616000
H       -0.912571000     -0.107161000     -0.545350000

eps=3.36
epsinf=3.36
RSolv=7.28

