%mem=700MW
%nprocshared=16
#p wB97XD/6-31g** td=(nstates=1) scf=(MaxCycle=20000,verytight) iop(3/107=0016000000,3/108=0016000000) nosymm pop=esp SCRF=(PCM,Solvent=Generic,Read)

 Y6

0  1
C       -0.441056000     -0.454600000     -0.054666000
C       -0.334228000     -0.524137000      1.340185000
C        0.938546000     -0.582067000      1.937249000
C        2.115890000     -0.600224000      1.194032000
C        1.998666000     -0.538516000     -0.188209000
C        0.734053000     -0.456822000     -0.798161000
C       -1.363198000     -0.572027000      2.407976000
C       -0.659466000     -0.430802000      3.694757000
C        0.797914000     -0.588083000      3.415284000
C       -1.245729000     -0.024820000      4.872916000
C       -0.769650000      0.195130000      6.203102000
S        0.813928000     -0.298830000      6.832539000
C        0.372496000      0.233433000      8.418660000
C       -0.917921000      0.792855000      8.443716000
C       -1.581539000      0.784771000      7.203904000
S       -1.398353000      1.394766000     10.039466000
C        0.154512000      0.894723000     10.663584000
C        0.988254000      0.307491000      9.687951000
N        2.183001000     -0.073520000     10.257646000
C        2.133116000      0.295863000     11.602451000
C        0.842408000      0.862792000     11.881160000
C        3.108948000      0.232884000     12.625214000
C        2.724937000      0.459329000     13.997989000
C        1.397565000      0.923782000     14.308401000
C        0.471552000      1.192582000     13.232276000
N        4.472581000     -0.050630000     12.577549000
C        4.929970000     -0.075999000     13.879260000
C        3.860350000      0.229546000     14.768189000
C        6.145158000     -0.273016000     14.539881000
C        6.003888000     -0.124074000     15.939808000
S        4.349334000      0.260331000     16.443819000
C        7.189751000     -0.302315000     16.679652000
C        8.263941000     -0.580207000     15.825133000
S        7.792166000     -0.661220000     14.128084000
N       -0.694594000      1.680724000     13.637349000
S       -0.616308000      1.784132000     15.286899000
N        0.917578000      1.205985000     15.512939000
C        9.648646000     -0.908455000     16.195772000
C       10.694530000     -0.019183000     16.267280000
C       12.085936000     -0.242561000     16.590648000
C       12.778542000      1.057189000     16.501549000
C       11.856271000      2.069432000     16.147348000
C       10.518039000      1.455767000     15.995121000
C       12.211495000      3.402128000     15.984246000
C       13.546276000      3.744612000     16.182181000
C       14.475695000      2.759598000     16.535986000
C       14.119973000      1.421073000     16.700241000
F       15.759278000      3.123714000     16.722816000
F       13.955987000      5.023951000     16.035693000
C       12.699605000     -1.482064000     16.937289000
C       14.083714000     -1.633472000     17.217817000
N       15.215583000     -1.819491000     17.456823000
O        9.478055000      2.032708000     15.707465000
C        7.308278000     -0.189379000     18.177590000
C        5.381664000      0.163328000     11.439239000
C        3.053103000     -1.091465000      9.647476000
C       -2.973931000      1.332933000      7.002140000
O        1.711694000     -0.675396000      4.222483000
C       -2.706622000     -0.831486000      2.214820000
C       -3.316244000     -0.958995000      0.924124000
N       -3.872269000     -1.067823000     -0.094266000
F        3.090198000     -0.545849000     -0.963721000
F        0.671387000     -0.376892000     -2.133634000
C       12.001014000     -2.713150000     17.048023000
N       11.476315000     -3.755996000     17.155482000
C       -3.636134000     -1.084017000      3.276989000
N       -4.438822000     -1.326799000      4.086334000
H       14.891917000      0.719370000     16.974982000
H       11.484346000      4.155518000     15.711718000
H        9.817911000     -1.961225000     16.384175000
H        6.600545000     -0.855686000     18.677472000
H        7.099742000      0.833052000     18.504112000
H        8.313498000     -0.450171000     18.504390000
H        6.195638000      0.811709000     11.758945000
H        4.849865000      0.676291000     10.644485000
H        5.789147000     -0.777965000     11.074711000
H        2.430579000     -1.821137000      9.132456000
H        3.595341000     -1.618414000     10.425875000
H        3.749355000     -0.645429000      8.939245000
H       -3.715067000      0.530701000      7.029002000
H       -3.073859000      1.860890000      6.053914000
H       -3.225164000      2.041789000      7.791059000
H       -2.298633000      0.212805000      4.791083000
H        3.088530000     -0.656202000      1.663561000
H       -1.378852000     -0.381963000     -0.582675000

eps=3.36
epsinf=3.36
RSolv=7.28

