%mem=1000MW
%nprocshared=40
#p wB97XD/6-31g** nosymm pop=esp opt td=(triplet,nstates=2,root=1) scf=(MaxCycle=20000) iop(3/107=0016000000,3/108=0016000000) SCRF=(PCM,Solvent=Generic,Read)

 Y6 opt-TDdft

0 1
C         -0.23700        0.02328       -0.03538
C         -0.11381       -0.12932        1.35137
C          1.12369        0.12377        1.97170
C          2.25657        0.50390        1.25698
C          2.12512        0.64771       -0.11804
C          0.88962        0.41636       -0.74925
C         -1.08665       -0.55657        2.38647
C         -0.44952       -0.33768        3.69627
C          0.99315       -0.05413        3.44025
C         -1.12632       -0.20805        4.88826
C         -0.72925        0.01007        6.24395
S          0.92075       -0.13295        6.87681
C          0.34580        0.11870        8.48951
C         -1.04258        0.34624        8.52119
C         -1.67166        0.28624        7.26530
S         -1.67036        0.66478       10.14744
C         -0.05052        0.48864       10.77621
C          0.91066        0.20942        9.78132
N          2.15226        0.05488       10.35771
C          1.99860        0.26629       11.72866
C          0.60820        0.49602       12.00974
C          2.94505        0.30910       12.77978
C          2.49363        0.30160       14.15091
C          1.09167        0.43427       14.45110
C          0.14816        0.59832       13.36973
N          4.33848        0.32036       12.76236
C          4.76401        0.24159       14.07296
C          3.63554        0.22745       14.94151
C          5.97904        0.19817       14.76140
C          5.77960        0.14367       16.16099
S          4.07121        0.15463       16.63056
C          6.95933        0.06742       16.92776
C          8.08683        0.07711       16.09650
S          7.67796        0.13875       14.38218
N         -1.10445        0.77458       13.77201
S         -1.08006        0.72850       15.42608
N          0.54018        0.48287       15.65722
C          9.49353       -0.10388       16.48433
C         10.39475        0.89784       16.75411
C         11.78649        0.81994       17.13662
C         12.27095        2.19888       17.33573
C         11.22754        3.11829       17.07592
C         10.01398        2.35835       16.70008
C         11.38110        4.49465       17.18150
C         12.62863        4.98081       17.56395
C         13.67409        4.08830       17.82849
C         13.52139        2.70626       17.72188
F         14.86893        4.58768       18.20001
F         12.84059        6.30997       17.68487
C         12.57023       -0.36074       17.29594
C         13.94036       -0.36080       17.67025
N         15.07012       -0.42154       17.97496
O          8.92075        2.82292       16.40695
C          7.01672       -0.00817       18.43171
C          5.20522        0.83797       11.69045
C          3.24509       -0.66853        9.68849
C         -3.15417        0.48379        7.05689
O          1.89466        0.04732        4.25945
C         -2.30319       -1.16547        2.14340
C         -2.85900       -1.34112        0.83416
N         -3.36614       -1.50701       -0.20193
F          3.17234        1.01829       -0.86575
F          0.80668        0.58420       -2.07538
C         12.07728       -1.67619       17.09035
N         11.72638       -2.78384       16.93406
C         -3.11624       -1.76544        3.16097
N         -3.81100       -2.29805        3.93041
H         14.37260        2.08212       17.94466
H         10.56558        5.17589       16.97701
H          9.80105       -1.14050       16.54211
H          8.04435       -0.11965       18.77297
H          6.43903       -0.85969       18.80096
H          6.60479        0.89972       18.88034
H          5.87322        1.58794       12.11049
H          4.59387        1.32926       10.94018
H          5.79284        0.04227       11.23666
H          2.81690       -1.44016        9.05124
H          3.85845       -1.16624       10.43301
H          3.85419        0.00112        9.08369
H         -3.65304       -0.47249        6.88528
H         -3.36159        1.13752        6.20877
H         -3.61024        0.94013        7.93473
H         -2.20455       -0.25017        4.80044
H          3.20573        0.68593        1.74242
H         -1.15781       -0.13032       -0.57581

  eps=3.36
  epsinf=3.36
  RSolv=7.28

 
