%mem=1000MW
%nprocshared=40
#p wB97XD/6-31g** nosymm pop=esp opt td=(triplet,nstates=2,root=1) scf=(MaxCycle=20000) iop(3/107=0016000000,3/108=0016000000) SCRF=(PCM,Solvent=Generic,Read)

 Y6 opt-TDdft

0 1
C         -0.05353        0.46418       -0.00943
C          0.03323        0.25371        1.37215
C          1.23135        0.55207        2.04464
C          2.35925        1.03630        1.38910
C          2.26427        1.23819        0.01757
C          1.06835        0.96098       -0.66538
C         -0.94356       -0.28040        2.35766
C         -0.35249       -0.11636        3.68991
C          1.06385        0.29277        3.49967
C         -1.06178       -0.14889        4.87879
C         -0.71960       -0.02930        6.25153
S          0.92942       -0.04839        6.92505
C          0.29976       -0.03877        8.53615
C         -1.10658        0.02031        8.54659
C         -1.70207        0.02943        7.27517
S         -1.78962        0.08172       10.17992
C         -0.17056        0.03252       10.83337
C          0.82536       -0.02215        9.84978
N          2.07221       -0.08598       10.45150
C          1.86642       -0.04093       11.82589
C          0.46873       -0.00867       12.09099
C          2.79935       -0.01834       12.91623
C          2.34028       -0.24976       14.24259
C          0.93323       -0.32426       14.51887
C         -0.01439       -0.13095       13.43855
N          4.17551        0.18535       12.93376
C          4.59427        0.02444       14.24514
C          3.49213       -0.25236       15.05944
C          5.80471        0.08327       14.97874
C          5.60103       -0.16077       16.33726
S          3.92198       -0.46501       16.73923
C          6.80953       -0.21204       17.12931
C          7.95518        0.18624       16.30117
S          7.49055        0.32623       14.60029
N         -1.28426       -0.15343       13.83051
S         -1.27115       -0.40879       15.46575
N          0.36421       -0.49374       15.70823
C          9.29146        0.39288       16.64576
C          9.84324        0.69183       17.90910
C         11.20922        0.37426       18.29656
C         11.44724        1.06077       19.53788
C         10.26111        1.80607       19.90398
C          9.27645        1.57713       18.92930
C         10.21845        2.59647       21.08199
C         11.32996        2.60402       21.88416
C         12.49346        1.84940       21.54760
C         12.56509        1.08639       20.40446
F         13.54254        1.89866       22.39475
F         11.35031        3.32439       23.02453
C         12.07968       -0.52554       17.59879
C         13.46526       -0.62711       17.88781
N         14.61607       -0.72355       18.08271
O          8.09494        2.24706       18.93109
C          6.91929       -0.71422       18.40411
C          4.96386        0.93723       11.94637
C          3.24801       -0.62512        9.75231
C         -3.19572        0.08028        7.06185
O          1.93400        0.42701        4.35005
C         -2.13027       -0.91837        2.03306
C         -2.64902       -1.01177        0.70142
N         -3.13024       -1.11657       -0.35548
F          3.31207        1.70877       -0.67445
F          1.01571        1.18553       -1.98667
C         11.63560       -1.42890       16.59800
N         11.32226       -2.21778       15.78927
C         -2.94522       -1.63038        2.97215
N         -3.64232       -2.25534        3.66713
H         13.47545        0.54170       20.20239
H          9.34305        3.16765       21.35871
H         10.00842        0.32929       15.83344
H          7.87908       -0.85113       18.87963
H          6.04549       -1.02996       18.95746
H          7.56263        2.02482       18.16345
H          5.46720        1.76404       12.44646
H          4.29826        1.36439       11.20333
H          5.70339        0.30180       11.46083
H          2.92686       -1.41981        9.08038
H          3.93024       -1.06277       10.47435
H          3.75826        0.14754        9.17848
H         -3.46921        0.69459        6.20414
H         -3.69073        0.50801        7.93390
H         -3.60102       -0.92283        6.90919
H         -2.13032       -0.26989        4.75442
H          3.27891        1.25301        1.91571
H         -0.94288        0.27727       -0.59055

  eps=3.36
  epsinf=3.36
  RSolv=7.28
 
