%mem=1000MW
%nprocshared=40
#p wB97XD/6-31g** nosymm pop=esp opt td=(nstates=2,root=1) scf=(MaxCycle=20000) iop(3/107=0016000000,3/108=0016000000) SCRF=(PCM,Solvent=Generic,Read)

 Y6 opt-TDdft

0 1
C          0.30747        0.86407        0.17253
C          0.32163        0.66981        1.55809
C          1.33243        1.27640        2.32674
C          2.33429        2.06301        1.76928
C          2.30757        2.25463        0.39193
C          1.30396        1.66126       -0.38789
C         -0.55666       -0.11900        2.46120
C         -0.13347        0.13555        3.82386
C          1.12901        0.93480        3.75719
C         -0.87906       -0.15027        4.97320
C         -0.61659       -0.07618        6.36006
S          0.97311        0.17934        7.11514
C          0.29725       -0.10331        8.69404
C         -1.09723       -0.32040        8.63099
C         -1.63669       -0.30757        7.34272
S         -1.83861       -0.54508       10.22756
C         -0.26487       -0.34603       10.95922
C          0.76060       -0.11130       10.02346
N          1.97424       -0.00102       10.68224
C          1.71592       -0.13950       12.04307
C          0.32549       -0.39652       12.23564
C          2.58718       -0.05847       13.17651
C          2.13175       -0.50728       14.45188
C          0.75370       -0.86579       14.64429
C         -0.17397       -0.74132       13.53829
N          3.90277        0.38423       13.28645
C          4.29969        0.16076       14.59539
C          3.22886       -0.39011       15.32537
C          5.45605        0.34618       15.37691
C          5.25009       -0.06795       16.71168
S          3.61636       -0.69690       17.00064
C          6.36014        0.06934       17.54811
C          7.48330        0.60205       16.83020
S          7.06907        0.95606       15.13702
N         -1.43003       -1.03584       13.85650
S         -1.42772       -1.44975       15.45873
N          0.18509       -1.25769       15.77959
C          8.76246        0.71724       17.42055
C          9.97958        1.27616       17.01507
C         11.22644        1.20031       17.75094
C         12.14859        2.22198       17.18911
C         11.54189        2.80830       16.06281
C         10.19356        2.21687       15.87211
C         12.16562        3.78380       15.29275
C         13.43787        4.19090       15.68030
C         14.05273        3.62309       16.80613
C         13.42978        2.63689       17.56873
F         15.27746        4.04734       17.15408
F         14.09227        5.13455       14.98346
C         11.56407        0.27555       18.74998
C         12.77959        0.31968       19.49761
N         13.74703        0.30826       20.15146
O          9.41973        2.47678       14.96136
C          6.37915       -0.29666       19.01064
C          4.57083        1.37381       12.42688
C          3.25567       -0.23829       10.00083
C         -3.09520       -0.51653        7.02298
O          1.85304        1.27016        4.68403
C         -1.54610       -1.01835        2.03828
C         -1.97422       -1.14759        0.68252
N         -2.37659       -1.29006       -0.40438
F          3.23975        3.01293       -0.20813
F          1.30890        1.87178       -1.71334
C         10.77660       -0.86830       19.08552
N         10.20613       -1.84014       19.39129
C         -2.18336       -1.96882        2.89360
N         -2.72151       -2.79256        3.52227
H         13.95968        2.24614       18.42304
H         11.68904        4.21856       14.42441
H          8.78027        0.28288       18.41137
H          6.81101        0.50257       19.61668
H          6.96009       -1.20561       19.18324
H          5.36957       -0.47509       19.38008
H          4.89744        2.21333       13.03932
H          3.86220        1.75675       11.69951
H          5.43098        0.94062       11.91822
H          3.11606       -1.00645        9.24131
H          3.98103       -0.61359       10.71572
H          3.63023        0.67030        9.53132
H         -3.46902        0.25284        6.34398
H         -3.70136       -0.47773        7.92765
H         -3.26107       -1.49008        6.55574
H         -1.88846       -0.48814        4.77764
H          3.10858        2.51634        2.37358
H         -0.43504        0.44132       -0.48602

  eps=3.36
  epsinf=3.36
  RSolv=7.28

 
