%mem=800MW
%nprocshared=64
#p wB97XD/6-31g** opt td=(nstates=2,root=1) pop=esp scf=(MaxCycle=20000) nosymm iop(3/107=0000100000,3/108=0000100000) SCRF=(PCM,Solvent=Generic,Read)

IEICO-4Cl

0  1
C         12.42047       -0.65977        9.95601
C         12.76754        0.17650        8.89319
C         14.06320        0.08958        8.35722
C         15.01084       -0.80505        8.82980
C         14.66106       -1.64861        9.89290
C         13.37115       -1.56656       10.45252
C         14.20904        1.09275        7.26678
C         12.91190        1.80764        7.16964
C         12.00187        1.21793        8.14189
C         12.62400        2.88580        6.32697
C         13.33674        3.60249        5.33838
C         12.72574        4.68196        4.65290
C         13.53860        5.29186        3.70450
C         14.84354        4.71169        3.61510
S         14.98467        3.36924        4.75790
C         15.92317        5.08550        2.79091
C         17.21418        4.48419        2.76086
C         18.07072        5.08529        1.85609
C         17.48399        6.15679        1.15463
S         15.83187        6.43286        1.62130
C         18.40132        6.74821        0.25101
C         19.63465        6.01321        0.35076
C         19.51261        4.85755        1.37922
C         20.73514        6.39013       -0.38379
C         20.61117        7.50888       -1.24971
C         19.36934        8.22708       -1.36947
C         18.27392        7.86009       -0.62276
C         19.50197        9.40948       -2.36469
C         20.98503        9.26831       -2.73769
C         21.55080        8.14908       -2.09517
S         23.22009        7.91015       -2.52343
C         23.16664        9.34536       -3.58696
C         21.86992        9.93638       -3.56328
C         18.67849        9.22210       -3.66824
C         18.54055       10.29329       -4.56982
C         17.88727       10.13050       -5.79082
C         17.34276        8.89024       -6.16999
C         17.48484        7.82469       -5.27110
C         18.14283        7.98412       -4.04570
C         16.61984        8.72675       -7.49557
C         19.17171       10.72422       -1.61249
C         17.86284       11.22969       -1.58272
C         17.54783       12.37442       -0.84529
C         18.52387       13.05830       -0.10396
C         19.83021       12.54300       -0.12736
C         20.14806       11.39850       -0.86217
C         24.27613        9.79624       -4.32646
S         24.16246       11.21989       -5.37081
C         25.85399       11.08856       -5.84675
C         26.45162        9.96343       -5.22528
C         25.59786        9.24953       -4.39242
C         19.56784        3.44593        0.73348
C         19.35959        3.24540       -0.63757
C         19.31596        1.95691       -1.18163
C         19.47205        0.81830       -0.37873
C         19.67373        1.02255        0.99758
C         19.71850        2.30567        1.54291
C         20.57605        5.07024        2.48656
C         20.32027        5.89365        3.59407
C         21.30481        6.13648        4.55495
C         22.58759        5.57575        4.44634
C         22.84462        4.76505        3.32966
C         21.86141        4.51849        2.36770
C         26.61240       11.94542       -6.67605
C         26.33022       13.09221       -7.42653
C         24.98373       13.64631       -7.71716
C         25.17774       14.71999       -8.73235
C         26.54884       14.84979       -9.01089
C         27.30574       13.88332       -8.15947
C         26.96090       15.79656       -9.95007
C         25.99477       16.59181      -10.58839
C         24.62514       16.45186      -10.29208
C         24.21254       15.50199       -9.34728
O         25.87660        8.15146       -3.67085
C         27.20365        7.59326       -3.72663
O         23.90577       13.29844       -7.24915
C         28.70040       13.83910       -8.06142
C         29.42750       13.05465       -7.10998
N         30.09291       12.46300       -6.35415
C         18.17842       14.29186        0.71235
C         19.44141       -0.58205       -0.96581
C         23.66001        5.85757        5.48465
O         13.23532        6.32474        2.90038
C         11.92363        6.91513        2.97937
C         10.64892        1.50079        8.35684
C          9.84698        0.87931        9.36605
N          9.12458        0.42612       10.16379
O         15.22248        1.27496        6.60166
C         29.58780       14.61638       -8.87065
N         30.37613       15.20751       -9.49741
C          9.86597        2.42260        7.59129
N          9.15300        3.14553        7.01396
H         15.99748       -0.85195        8.38953
H         11.44904       -0.63747       10.42105
H         11.71097        4.98088        4.86648
H         11.91673        7.70404        2.23207
H         11.75293        7.34288        3.96917
H         11.15425        6.17770        2.74316
H         17.47776        3.65180        3.39486
H         19.22269        4.08988       -1.30043
H         19.15367        1.84583       -2.24911
H         19.79484        0.16925        1.65765
H         19.87580        2.41373        2.60893
H         19.34770        6.35268        3.72084
H         21.06303        6.77105        5.40188
H         22.10370        3.87749        1.52903
H         23.82260        4.31062        3.20542
H         21.16913       11.03792       -0.84486
H         20.61661       13.04055        0.43166
H         17.07704       10.74031       -2.14473
H         16.52515       12.73850       -0.85619
H         18.94205       11.26796       -4.32097
H         17.80343       10.98254       -6.45825
H         18.23304        7.12598       -3.39265
H         17.08011        6.84915       -5.52170
H         17.33955        8.39920       -0.68985
H         21.67460        5.86133       -0.30567
H         21.62803       10.81906       -4.13453
H         18.00940       14.02958        1.76283
H         17.27086       14.77478        0.34395
H         18.98615       15.02755        0.68666
H         15.65347        9.24231       -7.47998
H         16.43132        7.67582       -7.72329
H         17.20073        9.15169       -8.31910
H         27.48851        9.71444       -5.39224
H         27.99554       15.94275      -10.21268
H         23.16484       15.38165       -9.10775
H         27.18311        6.73132       -3.06508
H         27.94069        8.31486       -3.36917
H         27.44291        7.27376       -4.74278
H         18.99463       -0.59025       -1.96204
H         18.86658       -1.26403       -0.33350
H         20.45330       -0.99323       -1.05283
H         23.23183        5.94641        6.48610
H         24.17478        6.79994        5.26549
H         24.41462        5.06855        5.50756
H         11.63263        3.29992        6.44157
H         27.63808       11.60736       -6.73239
Cl        26.55488       17.76163      -11.76536
Cl        23.40782       17.43574      -11.07587
Cl        15.85465       -2.77942       10.49329
Cl        12.89671       -2.58925       11.79268
                                                  
  eps=4.97393                                      
  epsinf=4.97393                                   
  RSolv=8.87                                       
                                                   
