%mem=800MW
%nprocshared=64
%chk=IT-4Cl-HSO-w-00011-T1paraS1.chk
%rwf=IT-4Cl-HSO-w-00011-T1paraS1.rwf
#p wB97XD/6-31g** td(50-50,nstates=5) 6D 10F nosymm GFInput scf=(MaxCycle=20000) iop(3/107=0001100000,3/108=0001100000) SCRF=(PCM,Solvent=Generic,Read)

IT-4Cl

0  1
C              -4.9776000000     15.4605800000     -0.6813000000
C              -4.7532100000     14.1120300000     -0.3979300000
C              -4.4559000000     13.7349400000      0.9226300000
C              -4.3861600000     14.6484900000      1.9631900000
C              -4.6118200000     16.0018900000      1.6801000000
C              -4.9018000000     16.3999400000      0.3595000000
C              -4.2327400000     12.2641000000      0.9758100000
C              -4.3644100000     11.7668100000     -0.4207000000
C              -4.7730400000     12.8899300000     -1.2550400000
C              -4.0401700000     10.4889000000     -0.8814900000
C              -3.6696600000      9.2706000000     -0.2672400000
S              -3.5619400000      8.8812300000      1.4643500000
C              -3.1256800000      7.2248200000      1.1016700000
C              -3.0569800000      7.0150000000     -0.3098900000
C              -3.3563800000      8.1312000000     -1.0659700000
C              -2.8110400000      6.0848100000      1.8346200000
C              -2.5049900000      4.9889600000      0.9877900000
S              -2.6008900000      5.3617100000     -0.7241300000
C              -2.1938200000      3.8321900000      1.7332000000
C              -2.3429200000      4.1656500000      3.1289300000
C              -2.7299200000      5.6588800000      3.3072100000
C              -1.7943500000      2.5298900000      1.3215700000
C              -1.5613800000      1.5887800000      2.2930800000
C              -1.7325500000      1.9154600000      3.6880900000
C              -2.1222600000      3.2209200000      4.1000600000
C              -1.0798100000      0.1231300000      2.1176600000
C              -1.0602700000     -0.3212500000      3.5867200000
C              -1.4497000000      0.7497200000      4.4313800000
S              -1.4911300000      0.3337800000      6.1356800000
C              -0.9858800000     -1.3054700000      5.7201600000
C              -0.8019900000     -1.4785900000      4.3141600000
S              -0.3062400000     -3.1164600000      3.9469700000
C              -0.3358300000     -3.5507000000      5.6706500000
C              -0.7318100000     -2.4373900000      6.4699700000
C               0.3323200000      0.1756300000      1.4761000000
C               0.4861600000      0.2654200000      0.0828700000
C               1.7483900000      0.4139900000     -0.4953700000
C               2.9102800000      0.4815800000      0.2906300000
C               2.7518500000      0.3983600000      1.6823800000
C               1.4899800000      0.2527800000      2.2643300000
C               4.2855400000      0.6145500000     -0.3392400000
C              -2.0971800000     -0.7687200000      1.3574600000
C              -1.6888000000     -1.9401700000      0.7002100000
C              -2.6180500000     -2.7893500000      0.0949500000
C              -3.9936400000     -2.5101900000      0.1262500000
C              -4.3992600000     -1.3439800000      0.7941200000
C              -3.4726600000     -0.4919000000      1.3997900000
C              -0.0020000000     -4.7825700000      6.2794700000
C               0.3825400000     -6.0403900000      5.8093300000
C               0.3879300000     -6.4928500000      4.3913500000
C               0.6188300000     -7.9630000000      4.4189300000
C               0.7985200000     -8.3806200000      5.7484600000
C               0.7333300000     -7.1855000000      6.6406000000
C               1.0055900000     -9.7365100000      6.0085700000
C               1.0316800000    -10.6422800000      4.9358600000
C               0.8591600000    -10.2034600000      3.6076400000
C               0.6504800000     -8.8427300000      3.3479300000
C              -4.1296100000      5.8541700000      3.9483000000
C              -4.4754600000      7.0595200000      4.5809000000
C              -5.7564900000      7.2605200000      5.0983600000
C              -6.7487000000      6.2712600000      5.0007000000
C              -6.4055300000      5.0761600000      4.3502200000
C              -5.1244800000      4.8719000000      3.8305800000
C              -1.5743900000      6.3512200000      4.0780800000
C              -1.5434700000      6.3513800000      5.4824800000
C              -0.4624800000      6.8947300000      6.1794100000
C               0.6347200000      7.4568700000      5.5067100000
C               0.6067900000      7.4413600000      4.1038600000
C              -0.4724100000      6.8964300000      3.4033300000
O               0.2218000000     -5.8179100000      3.3837300000
C               1.0396300000     -7.1965500000      8.0027100000
C               1.1525200000     -6.0285100000      8.8236400000
N               1.2836100000     -5.1272800000      9.5540700000
Cl              0.8923500000    -11.3160500000      2.2584900000
Cl              1.2858900000    -12.3339200000      5.3053500000
C              -4.9976500000     -3.4256000000     -0.5516600000
C              -8.1276200000      6.4831700000      5.5999000000
C               1.7896600000      8.0849000000      6.2664500000
C              -5.1869700000     12.8647400000     -2.5884700000
C              -5.3773800000     11.6755900000     -3.3635200000
N              -5.5755100000     10.7566600000     -4.0558500000
O              -3.9739900000     11.6192600000      1.9837400000
Cl             -4.5184100000     17.1571900000      2.9901300000
Cl             -5.1804200000     18.0808700000     -0.0391900000
C               1.3385200000     -8.3816800000      8.7475100000
N               1.5848300000     -9.3019700000      9.4220600000
C              -5.5286200000     14.0311900000     -3.3443500000
N              -5.8150700000     14.9337200000     -4.0270100000
H              -4.1619800000     14.3260900000      2.9707700000
H              -5.1987900000     15.8170700000     -1.6738200000
H              -4.0491400000     10.3788900000     -1.9571700000
H              -3.3663900000      8.1654900000     -2.1458000000
H              -2.2397500000      3.4498400000      5.1493700000
H              -1.6785300000      2.3008300000      0.2720800000
H              -0.8130300000     -2.5016300000      7.5453500000
H              -0.0919500000     -4.7073800000      7.3545500000
H               1.1394000000    -10.1241200000      7.0050000000
H               0.5144000000     -8.4882900000      2.3353400000
H              -4.9126500000      3.9345300000      3.3319700000
H              -0.4803000000      6.8802400000      7.2646800000
H              -2.3685600000      5.9343100000      6.0460500000
H               1.4367300000      7.8592400000      3.5431100000
H              -0.4394200000      6.8982700000      2.3211400000
H              -7.1446800000      4.2883800000      4.2446800000
H              -5.9802600000      8.2042900000      5.5853400000
H              -3.7427100000      7.8489600000      4.6854600000
H              -0.3787200000      0.2140100000     -0.5666100000
H               1.8244900000      0.4779600000     -1.5762500000
H               1.4206800000      0.2064400000      3.3436200000
H               3.6220600000      0.4495900000      2.3291100000
H              -3.8382000000      0.3905000000      1.9099200000
H              -5.4539500000     -1.0936500000      0.8500500000
H              -2.2593300000     -3.6842600000     -0.4032800000
H              -0.6394300000     -2.1992700000      0.6495500000
H              -8.4928200000      7.4962300000      5.4122300000
H              -8.8564500000      5.7800000000      5.1917300000
H              -8.1035700000      6.3411800000      6.6861100000
H               2.7281800000      7.9980100000      5.7140700000
H               1.6066900000      9.1518000000      6.4366500000
H               1.9283100000      7.6164800000      7.2436100000
H              -4.7210500000     -4.4764500000     -0.4353800000
H              -6.0007100000     -3.2936200000     -0.1405000000
H              -5.0513000000     -3.2183100000     -1.6263000000
H               4.2317900000      1.0870300000     -1.3224500000
H               4.9547200000      1.2101900000      0.2863200000
H               4.7495600000     -0.3693400000     -0.4712700000
                                                
  eps=4.88617                                      
  epsinf=4.88617                                   
  RSolv=8.36                                       
    
