%mem=1000MW
%nprocshared=40
#p wB97XD/6-31g** nosymm pop=esp opt td=(triplet,nstates=3,root=2) scf=(MaxCycle=20000) iop(3/107=0016000000,3/108=0016000000) SCRF=(PCM,Solvent=Generic,Read)

 Y6 opt-TDdft

0 1
C          0.21103        0.89479        0.20109
C          0.26811        0.58462        1.56576
C          1.46143        0.80442        2.27856
C          2.61347        1.30325        1.67655
C          2.54806        1.60255        0.32196
C          1.35647        1.40602       -0.39895
C         -0.73840        0.00556        2.48922
C         -0.17652        0.08447        3.84804
C          1.26329        0.45062        3.70721
C         -0.91487        0.03093        5.00948
C         -0.59468        0.08498        6.40117
S          1.02876       -0.05804        7.09987
C          0.36382       -0.05574        8.69763
C         -1.03568        0.09170        8.68258
C         -1.59912        0.17339        7.39720
S         -1.75859        0.14733       10.29960
C         -0.16336       -0.02792       10.98741
C          0.85998       -0.11254       10.01935
N          2.08002       -0.27411       10.63912
C          1.84688       -0.26588       12.01489
C          0.43297       -0.15798       12.24564
C          2.73657       -0.30991       13.11477
C          2.22109       -0.53874       14.44323
C          0.80024       -0.54138       14.67755
C         -0.09845       -0.27831       13.57777
N          4.12363       -0.19223       13.18109
C          4.48953       -0.41142       14.49393
C          3.32537       -0.63343       15.28345
C          5.66714       -0.43380       15.24571
C          5.40386       -0.68037       16.61384
S          3.68123       -0.88728       16.97385
C          6.54262       -0.72138       17.44222
C          7.70237       -0.48168       16.69437
S          7.37951       -0.26301       14.97412
N         -1.37797       -0.23584       13.92840
S         -1.43081       -0.52124       15.55786
N          0.18923       -0.70193       15.84446
C          9.09821       -0.52189       17.15441
C          9.83061        0.55858       17.58555
C         11.19891        0.63422       18.04481
C         11.47466        2.04139       18.39275
C         10.31952        2.82689       18.16971
C          9.24327        1.94741       17.66145
C         10.26963        4.19450       18.40658
C         11.42176        4.81125       18.88661
C         12.57702        4.05350       19.11237
C         12.62803        2.68003       18.87487
F         13.67721        4.67843       19.57508
F         11.43675        6.13922       19.13661
C         12.13025       -0.43979       18.15393
C         13.45806       -0.29466       18.63674
N         14.56148       -0.23643       19.02660
O          8.10413        2.28155       17.36473
C          6.52764       -0.96196       18.92962
C          4.99356        0.53237       12.23893
C          3.24782       -0.83550        9.94167
C         -3.07782        0.33211        7.13477
O          2.11720        0.48831        4.58115
C         -1.91695       -0.60753        2.10795
C         -2.40193       -0.63369        0.75960
N         -2.85460       -0.68339       -0.31317
F          3.61794        2.09096       -0.31834
F          1.33436        1.72538       -1.69955
C         11.83940       -1.78354       17.79912
N         11.65521       -2.90751       17.52132
C         -2.75392       -1.35965        2.99645
N         -3.46326       -2.01170        3.65219
H         13.55563        2.16549       19.07107
H          9.37040        4.76936       18.22792
H          9.54972       -1.50517       17.11810
H          7.54128       -1.02553       19.32159
H          6.00884       -1.89392       19.16852
H          6.01431       -0.14619       19.44594
H          5.58968        1.25156       12.79753
H          4.37934        1.09084       11.53947
H          5.65470       -0.14702       11.70420
H          2.90335       -1.56303        9.20866
H          3.87341       -1.36490       10.65275
H          3.82072       -0.05735        9.43991
H         -3.27456        1.10531        6.39071
H         -3.60352        0.61821        8.04501
H         -3.51594       -0.60377        6.78168
H         -1.98428       -0.04716        4.86028
H          3.52896        1.45893        2.23099
H         -0.67302        0.77599       -0.40552

  eps=3.36
  epsinf=3.36
  RSolv=7.28

