%mem=1000MW
%nprocshared=40
#p wB97XD/6-31g** nosymm pop=esp opt td=(nstates=2,root=1) scf=(MaxCycle=20000) iop(3/107=0016000000,3/108=0016000000) SCRF=(PCM,Solvent=Generic,Read)

 Y6 opt-TDdft

0 1
C         -0.09342        0.30182       -0.02219
C         -0.01691        0.17023        1.36878
C          1.18431        0.49645        2.02540
C          2.31768        0.93539        1.34999
C          2.23021        1.06454       -0.03216
C          1.03679        0.75392       -0.70060
C         -1.00154       -0.29806        2.37880
C         -0.41383       -0.10643        3.69136
C          1.01128        0.29589        3.48594
C         -1.11353       -0.12470        4.90192
C         -0.74346       -0.01782        6.26264
S          0.91011       -0.05542        6.91386
C          0.29652       -0.03143        8.54406
C         -1.11369        0.05078        8.56626
C         -1.72230        0.06421        7.30964
S         -1.77918        0.14115       10.20930
C         -0.15342        0.07176       10.84551
C          0.83495       -0.00789        9.84352
N          2.08680       -0.07978       10.43122
C          1.89678       -0.01331       11.80934
C          0.49811        0.03727       12.09111
C          2.84012        0.02857       12.88346
C          2.39596       -0.16718       14.22509
C          0.99088       -0.22636       14.51974
C          0.03126       -0.05171       13.44783
N          4.21912        0.22221       12.87817
C          4.65250        0.09160       14.18716
C          3.55242       -0.15691       15.02807
C          5.87015        0.16767       14.89273
C          5.68200       -0.03002       16.27658
S          3.99003       -0.31686       16.71171
C          6.85071        0.00339       17.05891
C          7.98126        0.28093       16.24865
S          7.55170        0.39926       14.52105
N         -1.23358       -0.05514       13.85444
S         -1.20229       -0.27255       15.49506
N          0.43507       -0.36433       15.71901
C          9.36092        0.37241       16.57039
C          9.95104        0.88829       17.72553
C         11.32538        0.72593       18.14321
C         11.59990        1.72214       19.20997
C         10.41889        2.44078       19.47686
C          9.33485        1.96527       18.57786
C         10.34501        3.43790       20.44271
C         11.50023        3.72082       21.16330
C         12.68589        3.01508       20.90935
C         12.75648        2.01335       19.94273
F         13.78156        3.31861       21.62309
F         11.49559        4.67382       22.10970
C         12.21923       -0.25325       17.68441
C         13.59201       -0.31929       18.06865
N         14.72442       -0.41536       18.33730
O          8.20714        2.42538       18.50425
C          6.88264       -0.33788       18.52373
C          4.99843        0.95388       11.86782
C          3.24673       -0.64983        9.72879
C         -3.20922        0.15951        7.07859
O          1.87574        0.45125        4.33741
C         -2.23187       -0.90119        2.08157
C         -2.78653       -0.96912        0.76768
N         -3.29856       -1.04543       -0.27902
F          3.28547        1.49301       -0.74429
F          0.98931        0.89845       -2.03403
C         11.84370       -1.32591       16.81810
N         11.59843       -2.23668       16.12945
C         -3.03965       -1.59262        3.03571
N         -3.73525       -2.20212        3.74856
H         13.70125        1.51304       19.79729
H          9.42771        3.97755       20.63647
H         10.03656        0.04754       15.78677
H          7.88989       -0.59033       18.85132
H          6.23894       -1.19799       18.72286
H          6.52939        0.49959       19.12848
H          5.51262        1.78462       12.34938
H          4.32583        1.37238       11.12608
H          5.72818        0.30555       11.38487
H          2.90664       -1.45457        9.07838
H          3.93252       -1.08026       10.45173
H          3.75926        0.10403        9.13271
H         -3.45623        0.99295        6.41634
H         -3.73953        0.31817        8.01689
H         -3.60149       -0.75567        6.63023
H         -2.18578       -0.21905        4.79208
H          3.23713        1.17255        1.86828
H         -0.97894        0.08255       -0.59767

  eps=3.36
  epsinf=3.36
  RSolv=7.28
 
