%mem=1000MW
%nprocshared=40
#p wB97XD/6-31g** nosymm pop=esp opt td=(triplet,nstates=3,root=2) scf=(MaxCycle=20000) iop(3/107=0016000000,3/108=0016000000) SCRF=(PCM,Solvent=Generic,Read)

 Y6 opt-TDdft

0 1
C         -0.10999        0.31390       -0.02222
C         -0.01980        0.15206        1.36447
C          1.17687        0.48664        2.02241
C          2.29745        0.96186        1.35008
C          2.19831        1.11806       -0.02837
C          1.00633        0.80225       -0.69755
C         -0.98907       -0.35872        2.37238
C         -0.39618       -0.16551        3.68894
C          1.01323        0.26455        3.48319
C         -1.09380       -0.21056        4.89761
C         -0.73009       -0.09222        6.25733
S          0.92394       -0.05153        6.90831
C          0.30955       -0.04581        8.53891
C         -1.10896       -0.03127        8.55660
C         -1.71344       -0.05345        7.30472
S         -1.78398        0.02729       10.20059
C         -0.15716        0.03169       10.84088
C          0.84328        0.00064        9.82871
N          2.09432       -0.01426       10.41609
C          1.90266        0.03947       11.80287
C          0.48198        0.02351       12.07492
C          2.81878        0.14502       12.86177
C          2.37305       -0.04519       14.22509
C          0.96622       -0.16067       14.51347
C          0.00886       -0.06235       13.43291
N          4.20429        0.35896       12.86756
C          4.62979        0.24178       14.17794
C          3.51085       -0.01582       15.02134
C          5.82866        0.32957       14.88413
C          5.64027        0.12821       16.27726
S          3.94358       -0.16970       16.70887
C          6.79631        0.15337       17.05939
C          7.93989        0.42712       16.24972
S          7.51598        0.56481       14.52188
N         -1.25594       -0.11999       13.82916
S         -1.22918       -0.29567       15.47763
N          0.41216       -0.29779       15.71109
C          9.31491        0.48862       16.56856
C          9.92982        0.92650       17.74682
C         11.30539        0.69172       18.12814
C         11.63856        1.63075       19.23366
C         10.48798        2.37300       19.55687
C          9.37111        1.97836       18.65312
C         10.46914        3.32794       20.56661
C         11.64935        3.53988       21.27222
C         12.80558        2.81040       20.96000
C         12.82030        1.85158       19.94844
F         13.92742        3.04710       21.65931
F         11.69577        4.44890       22.25985
C         12.15040       -0.29789       17.61933
C         13.52195       -0.44432       17.99136
N         14.64918       -0.60709       18.24752
O          8.26232        2.49073       18.62100
C          6.82766       -0.20139       18.52221
C          4.96263        1.13219       11.87146
C          3.27397       -0.55037        9.71923
C         -3.20394       -0.03290        7.07205
O          1.88222        0.43229        4.32951
C         -2.19038       -0.99583        2.06740
C         -2.72778       -1.09335        0.74575
N         -3.22558       -1.19890       -0.30438
F          3.24059        1.58000       -0.73707
F          0.94754        0.97822       -2.02671
C         11.72486       -1.31404       16.70632
N         11.44241       -2.18423       15.98124
C         -2.99368       -1.70086        3.01867
N         -3.68365       -2.32263        3.72503
H         13.74514        1.33045       19.75673
H          9.57564        3.88922       20.80535
H          9.98141        0.20425       15.76147
H          7.82303       -0.52107       18.82826
H          6.13482       -1.02062       18.72696
H          6.54278        0.65194       19.14008
H          5.45043        1.97180       12.36582
H          4.27758        1.53935       11.13434
H          5.71305        0.51563       11.37866
H          2.96310       -1.36737        9.06904
H          3.97057       -0.95624       10.44619
H          3.76501        0.21826        9.12383
H         -3.49229        0.79121        6.41515
H         -3.74265        0.09297        8.01051
H         -3.54752       -0.96415        6.61796
H         -2.16267       -0.33869        4.78741
H          3.21536        1.20604        1.86777
H         -0.99644        0.09338       -0.59583

  eps=3.36
  epsinf=3.36
  RSolv=7.28

