%mem=800MW
%nprocshared=64
#p wB97XD/6-31g** opt td=(triplet,nstates=2,root=1) pop=esp scf=(MaxCycle=20000) nosymm iop(3/107=0001100000,3/108=0001100000) SCRF=(PCM,Solvent=Generic,Read)

IT-4Cl

0  1
C         -5.04891       15.47381       -0.55575
C         -4.76099       14.12469       -0.32921
C         -4.63404       13.67650        0.99737
C         -4.78305       14.51364        2.09182
C         -5.07059       15.86590        1.86382
C         -5.20152       16.33608        0.54159
C         -4.32450       12.22352        0.99576
C         -4.25531       11.80281       -0.42996
C         -4.54337       12.97648       -1.25445
C         -3.95257       10.52561       -0.89402
C         -3.64549        9.27976       -0.28135
S         -3.54734        8.87811        1.44853
C         -3.13556        7.22279        1.07685
C         -3.08124        7.01276       -0.32822
C         -3.36368        8.14375       -1.08279
C         -2.83105        6.07017        1.80823
C         -2.54929        4.97957        0.96106
S         -2.65472        5.35378       -0.74573
C         -2.23628        3.81456        1.70741
C         -2.36356        4.15470        3.10028
C         -2.74226        5.64754        3.27909
C         -1.85176        2.51338        1.29446
C         -1.60559        1.57426        2.26887
C         -1.74984        1.91068        3.66068
C         -2.12874        3.21283        4.07409
C         -1.12993        0.10770        2.09586
C         -1.07670       -0.32337        3.56699
C         -1.44952        0.74423        4.40846
S         -1.45335        0.34737        6.11246
C         -0.94795       -1.29070        5.70328
C         -0.79512       -1.48011        4.30202
S         -0.30179       -3.11663        3.94238
C         -0.28608       -3.52944        5.67202
C         -0.66615       -2.41694        6.46434
C          0.26576        0.15583        1.41959
C          0.38666        0.21921        0.02165
C          1.63471        0.36361       -0.58750
C          2.81360        0.45332        0.17072
C          2.68744        0.39670        1.56724
C          1.44013        0.25549        2.18027
C          4.17346        0.58188       -0.49237
C         -2.16642       -0.79245        1.37312
C         -1.77380       -1.97454        0.72547
C         -2.71777       -2.83350        0.15842
C         -4.09236       -2.55353        0.22015
C         -4.48161       -1.37591        0.87794
C         -3.54048       -0.51412        1.44592
C          0.07637       -4.75627        6.29081
C          0.44917       -6.01568        5.83118
C          0.40820       -6.49100        4.42099
C          0.64084       -7.95995        4.46553
C          0.86828       -8.35384        5.79667
C          0.82900       -7.14923        6.67071
C          1.09074       -9.70571        6.07102
C          1.08190      -10.62900        5.01345
C          0.86009      -10.21406        3.68471
C          0.63784       -8.85776        3.40964
C         -4.13957        5.84800        3.92438
C         -4.47959        7.05560        4.55585
C         -5.75858        7.26112        5.07624
C         -6.75409        6.27452        4.98305
C         -6.41655        5.07715        4.33366
C         -5.13785        4.86848        3.81040
C         -1.57973        6.33471        4.04355
C         -1.54735        6.34740        5.44784
C         -0.46086        6.88782        6.13833
C          0.64036        7.43422        5.45906
C          0.61103        7.40520        4.05637
C         -0.47334        6.86295        3.36205
O          0.20733       -5.83154        3.40908
C          1.17378       -7.13680        8.02560
C          1.30851       -5.95566        8.82238
N          1.45704       -5.04037        9.53275
Cl         0.84875      -11.34958        2.35429
Cl         1.35653      -12.31339        5.40197
C         -5.11279       -3.48119       -0.41488
C         -8.13059        6.49178        5.58547
C          1.80078        8.06006        6.21190
C         -4.62340       13.06396       -2.64831
C         -4.43972       11.97635       -3.55933
N         -4.30658       11.14717       -4.37150
O         -4.16153       11.53186        1.99335
Cl        -5.25537       16.92685        3.24195
Cl        -5.56021       18.01728        0.21015
C          1.49254       -8.30832        8.78205
N          1.75688       -9.21789        9.46519
C         -4.91272       14.27004       -3.36152
N         -5.14205       15.20775       -4.01888
H         -4.67788       14.13237        3.09843
H         -5.15949       15.88788       -1.54395
H         -3.93101       10.42254       -1.96954
H         -3.37201        8.18115       -2.16249
H         -2.22712        3.44823        5.12375
H         -1.75368        2.27814        0.24470
H         -0.71954       -2.46526        7.54234
H          0.02365       -4.66115        7.36687
H          1.26183      -10.07516        7.06868
H          0.46626       -8.52157        2.39623
H         -4.93085        3.92996        3.31188
H         -0.47765        6.88407        7.22365
H         -2.37521        5.94297        6.01647
H          1.44390        7.81040        3.49080
H         -0.44078        6.85388        2.27988
H         -7.15832        4.29148        4.23154
H         -5.97826        8.20638        5.56201
H         -3.74429        7.84290        4.65749
H         -0.49294        0.15019       -0.60607
H          1.68601        0.40653       -1.67087
H          1.39542        0.23046        3.26165
H          3.57196        0.46560        2.19236
H         -3.89335        0.37575        1.95208
H         -5.53464       -1.12502        0.95663
H         -2.37182       -3.73703       -0.33307
H         -0.72583       -2.23459        0.65455
H         -8.49340        7.50535        5.39613
H         -8.86242        5.78937        5.18150
H         -8.10339        6.35275        6.67198
H          2.73619        7.97035        5.65489
H          1.62083        9.12753        6.38163
H          1.94301        7.59261        7.18901
H         -4.82601       -4.52913       -0.29788
H         -6.10247       -3.35074        0.02794
H         -5.20331       -3.28446       -1.48901
H          4.09668        1.04937       -1.47646
H          4.85767        1.17982        0.11430
H          4.63306       -0.40324       -0.63034
                                                
  eps=4.88617                                      
  epsinf=4.88617                                   
  RSolv=8.36                                       
   
