%mem=1000MW
%nprocshared=40
#p wB97XD/6-31g** nosymm pop=esp opt td=(triplet,nstates=2,root=1) scf=(MaxCycle=20000) iop(3/107=0016000000,3/108=0016000000) SCRF=(PCM,Solvent=Generic,Read)

 Y6 opt-TDdft

0 1
C          0.02805        0.50893        0.08813
C          0.12302        0.27539        1.46571
C          1.32996        0.54831        2.13632
C          2.45982        1.02824        1.47933
C          2.35670        1.25252        0.11253
C          1.15118        1.00152       -0.56711
C         -0.85346       -0.26266        2.44402
C         -0.26305       -0.09499        3.78206
C          1.17048        0.27154        3.58730
C         -0.97969       -0.07184        4.95735
C         -0.63282        0.06405        6.33686
S          1.00004       -0.07615        7.01326
C          0.36571        0.02825        8.62019
C         -1.03001        0.20894        8.62069
C         -1.61593        0.23155        7.34297
S         -1.72186        0.37505       10.24338
C         -0.11876        0.20253       10.91297
C          0.88453        0.03597        9.93478
N          2.11202       -0.11766       10.54292
C          1.90318       -0.01847       11.91921
C          0.49739        0.13624       12.16712
C          2.81256       -0.01341       13.00383
C          2.31881       -0.14683       14.35292
C          0.90310       -0.10116       14.61203
C         -0.01074        0.11216       13.51356
N          4.20249        0.07293       13.03561
C          4.59061       -0.07534       14.35229
C          3.43788       -0.21771       15.17635
C          5.78275       -0.08666       15.08052
C          5.54229       -0.24854       16.46569
S          3.82276       -0.38277       16.87129
C          6.69716       -0.28137       17.27104
C          7.84810       -0.12110       16.48709
S          7.49290        0.01506       14.76464
N         -1.28218        0.20520       13.88340
S         -1.31004        0.02484       15.52812
N          0.31080       -0.17394       15.79728
C          9.25084       -0.18599       16.91850
C         10.03336        0.88863       17.27328
C         11.41494        0.93644       17.69236
C         11.74779        2.34791       17.97168
C         10.61757        3.16331       17.73256
C          9.49972        2.30015       17.28787
C         10.62073        4.54092       17.90801
C         11.80287        5.13648       18.34036
C         12.93376        4.34821       18.58270
C         12.93075        2.96425       18.40710
F         14.06390        4.95157       18.99979
F         11.86895        6.47288       18.52916
C         12.31421       -0.16187       17.81986
C         13.66683       -0.03798       18.23543
N         14.78842        0.00264       18.57169
O          8.36877        2.66303       16.99361
C          6.70906       -0.44712       18.76862
C          5.06955        0.71825       12.03521
C          3.24878       -0.76508        9.86773
C         -3.09557        0.40983        7.09894
O          2.04365        0.36433        4.43754
C         -2.02887       -0.91863        2.13085
C         -2.54356       -1.04015        0.79896
N         -3.01682       -1.16618       -0.25857
F          3.40299        1.72069       -0.57983
F          1.09355        1.24907       -1.88218
C         11.96729       -1.51068       17.54225
N         11.73759       -2.63998       17.32744
C         -2.82905       -1.62666        3.08743
N         -3.50800       -2.24719        3.80322
H         13.84197        2.42547       18.61436
H          9.73959        5.13983       17.71848
H          9.66584       -1.18594       16.92627
H          7.72990       -0.50050       19.14287
H          6.18781       -1.36188       19.06288
H          6.21212        0.39698       19.25434
H          5.63927        1.50844       12.52169
H          4.45384        1.18128       11.27127
H          5.75253        0.00076       11.58393
H          2.87038       -1.54248        9.20583
H          3.88127       -1.24596       10.60679
H          3.82739       -0.04692        9.28903
H         -3.29026        1.12977        6.30288
H         -3.59212        0.77927        7.99553
H         -3.56524       -0.53852        6.82916
H         -2.05224       -0.14880        4.83130
H          3.38629        1.22538        2.00141
H         -0.86937        0.34487       -0.48758

  eps=3.36
  epsinf=3.36
  RSolv=7.28

