%mem=1000MW
%nprocshared=40
#p wB97XD/6-31g** nosymm pop=esp opt td=(nstates=2,root=1) scf=(MaxCycle=20000) iop(3/107=0001100000,3/108=0001100000) SCRF=(PCM,Solvent=Generic,Read)

 IT-4Cl opt-TDdft

0 1
C         -0.11476       -0.28308       -0.22142
C         -0.08411       -0.14819        1.17428
C          1.17447       -0.08847        1.79536
C          2.35139       -0.14120        1.04558
C          2.32374       -0.26235       -0.35364
C          1.06496       -0.33572       -0.96874
C         -1.38967       -0.19350        2.01179
C         -2.64120        0.18523        1.20592
C         -3.50224       -0.90669        1.08785
C         -2.95049       -2.07537        1.73462
C         -1.70641       -1.68374        2.30301
S         -4.98101       -0.57695        0.22142
C         -4.44897        1.08768       -0.00604
C         -3.18285        1.32736        0.59178
C         -5.02194        2.18443       -0.64252
C         -4.20171        3.33445       -0.55659
S         -2.70567        2.98541        0.35505
C         -0.92694       -2.60654        2.98335
C         -1.41472       -3.92138        3.09407
C         -2.66415       -4.31076        2.53486
C         -3.43857       -3.38953        1.84551
C         -0.84820       -5.09380        3.71394
C         -1.67944       -6.20606        3.54350
C         -2.95667       -5.81384        2.78443
S          0.61712       -5.41198        4.60876
C          0.12202       -7.09680        4.76565
C         -1.13156       -7.34864        4.14694
S         -1.58488       -9.03080        4.31284
C         -0.09612       -9.38243        5.21800
C          0.70077       -8.20823        5.35858
C         -4.40339        4.66732       -0.98270
C         -5.31260        5.21699       -1.89714
C         -6.00738        4.49188       -3.01387
C         -6.51533        5.55052       -3.93238
C         -6.23024        6.81744       -3.39272
C         -5.54206        6.63560       -2.08590
C         -7.16948        5.38644       -5.14365
C         -7.55095        6.53049       -5.85823
C         -7.27111        7.80767       -5.33206
C         -6.61596        7.95798       -4.09895
Cl        -8.36354        6.32508       -7.39390
Cl        -7.72529        9.26144       -6.19354
O         -6.11524        3.28765       -3.19051
C         -5.25913        7.65596       -1.16634
C         -5.42667        9.04842       -1.44080
N         -5.52775       10.20049       -1.60304
C         -1.35855        0.68462        3.29181
C         -0.71505        1.93340        3.29453
C         -0.75572        2.76387        4.41612
C         -1.44584        2.38783        5.58037
C         -2.09817        1.14580        5.56963
C         -2.05919        0.31180        4.44849
C         -3.09721       -6.50948        1.40601
C         -4.33686       -6.56681        0.74885
C         -4.45084       -7.11608       -0.53019
C         -3.33304       -7.62745       -1.20894
C         -2.09330       -7.55485       -0.55507
C         -1.97550       -7.00421        0.72369
C         -4.16228       -6.04216        3.73840
C         -4.81881       -7.28343        3.78955
C         -5.84345       -7.52053        4.70747
C         -6.25488       -6.53311        5.61799
C         -5.59144       -5.29822        5.57027
C         -4.56429       -5.05773        4.65305
C          0.33237      -10.60547        5.78728
C         -0.17439      -11.90896        5.82193
C         -1.36377      -12.41674        5.07203
C         -1.37241      -13.89266        5.24507
C         -0.30065      -14.26644        6.07548
C          0.42511      -13.03917        6.50950
C         -0.10407      -15.62192        6.34964
C         -0.98255      -16.56666        5.79425
C         -2.05822      -16.17150        4.97443
C         -2.25425      -14.81184        4.69827
C         -3.46562       -8.26014       -2.58318
C         -7.38243       -6.79587        6.60065
O         -2.17442      -11.76653        4.42740
C          1.45164      -13.01586        7.46854
C          2.02405      -14.18650        8.05520
N          2.54650      -15.09461        8.57168
Cl        -0.69311      -18.25467        6.15519
Cl        -3.16581      -17.33501        4.28067
C         -1.46185        3.28520        6.80530
C          3.60628       -0.28427       -1.16641
C          2.02236      -11.82996        8.02736
N          2.52747      -10.91315        8.54611
C         -4.83598        7.42656        0.18127
N         -4.51655        7.32154        1.29960
H         -7.37759        4.39940       -5.53331
H         -6.42289        8.95585       -3.74027
H         -3.71153        5.37712       -0.54580
H         -5.97837        2.18913       -1.13603
H          0.02386       -2.33046        3.41616
H         -4.38582       -3.66697        1.40565
H          1.64656       -8.21171        5.88071
H          1.28022      -10.47403        6.29009
H          0.70247      -15.97954        6.96825
H         -3.07286      -14.48896        4.06961
H         -2.58574       -0.63307        4.48837
H          3.30398       -0.08502        1.56298
H          1.24858        0.00820        2.87132
H          0.99499       -0.43733       -2.04702
H         -1.06121       -0.35603       -0.74209
H         -2.64753        0.81708        6.44610
H         -0.24257        3.71945        4.37794
H         -0.16544        2.26453        2.42294
H         -5.22881       -6.18946        1.23295
H         -5.42822       -7.14684       -1.00115
H         -0.99521       -6.96020        1.18135
H         -1.20167       -7.93303       -1.04503
H         -4.07754       -4.09123        4.66632
H         -5.87317       -4.50767        6.25851
H         -6.32596       -8.49271        4.71173
H         -4.54279       -8.07477        3.10505
H         -1.64908        4.32738        6.53302
H         -2.23029        2.97958        7.51793
H         -0.49721        3.25241        7.32352
H          3.45648       -0.75391       -2.14084
H          3.97151        0.73363       -1.34310
H          4.39929       -0.82841       -0.64705
H         -7.25763       -7.76253        7.09642
H         -7.43181       -6.02500        7.37198
H         -8.35042       -6.81618        6.08827
H         -4.29605       -7.82702       -3.14532
H         -2.55408       -8.13228       -3.17148
H         -3.65228       -9.33642       -2.49652

  eps=4.88617
  epsinf=4.88617
  RSolv=8.36
 
