%mem=1000MW
%nprocshared=40
#p wB97XD/6-31g** nosymm pop=esp opt td=(triplet,nstates=3,root=2) scf=(MaxCycle=20000) iop(3/107=0001100000,3/108=0001100000) SCRF=(PCM,Solvent=Generic,Read)

 IT-4Cl opt-TDdft

0 1
C         -0.11500       -0.28310       -0.22109
C         -0.08436       -0.14817        1.17460
C          1.17422       -0.08846        1.79569
C          2.35115       -0.14124        1.04591
C          2.32350       -0.26245       -0.35330
C          1.06472       -0.33581       -0.96841
C         -1.38992       -0.19342        2.01209
C         -2.64141        0.18531        1.20617
C         -3.50249       -0.90660        1.08816
C         -2.95075       -2.07527        1.73497
C         -1.70667       -1.68365        2.30335
S         -4.98124       -0.57686        0.22170
C         -4.44912        1.08774       -0.00590
C         -3.18301        1.32741        0.59195
C         -5.02202        2.18445       -0.64250
C         -4.20174        3.33444       -0.55665
S         -2.70576        2.98542        0.35510
C         -0.92720       -2.60646        2.98368
C         -1.41499       -3.92130        3.09440
C         -2.66444       -4.31066        2.53524
C         -3.43886       -3.38942        1.84589
C         -0.84843       -5.09374        3.71421
C         -1.67967       -6.20599        3.54377
C         -2.95695       -5.81373        2.78481
S          0.61693       -5.41195        4.60894
C          0.12189       -7.09680        4.76572
C         -1.13172       -7.34862        4.14708
S         -1.58500       -9.03079        4.31289
C         -0.09614       -9.38248        5.21787
C          0.70072       -8.20827        5.35851
C         -4.40334        4.66728       -0.98290
C         -5.31243        5.21692       -1.89748
C         -6.00717        4.49176       -3.01421
C         -6.51488        5.55035       -3.93290
C         -6.22975        6.81730       -3.39333
C         -5.54176        6.63552       -2.08640
C         -7.16887        5.38622       -5.14425
C         -7.55013        6.53022       -5.85900
C         -7.27025        7.80743       -5.33292
C         -6.61526        7.95780       -4.09973
Cl        -8.36252        6.32473       -7.39477
Cl        -7.72416        9.26115       -6.19462
O         -6.11507        3.28752       -3.19078
C         -5.25887        7.65592       -1.16687
C         -5.42616        9.04838       -1.44148
N         -5.52704       10.20045       -1.60382
C         -1.35879        0.68476        3.29207
C         -0.71496        1.93336        3.29482
C         -0.75558        2.76390        4.41636
C         -1.44604        2.38814        5.58050
C         -2.09872        1.14630        5.56972
C         -2.05977        0.31221        4.44864
C         -3.09760       -6.50934        1.40639
C         -4.33730       -6.56662        0.74931
C         -4.45137       -7.11588       -0.52973
C         -3.33364       -7.62727       -1.20856
C         -2.09385       -7.55472       -0.55476
C         -1.97595       -7.00411        0.72401
C         -4.16249       -6.04207        3.73888
C         -4.81907       -7.28332        3.78997
C         -5.84361       -7.52047        4.70798
C         -6.25488       -6.53313        5.61866
C         -5.59139       -5.29827        5.57101
C         -4.56433       -5.05773        4.65369
C          0.33246      -10.60557        5.78697
C         -0.17419      -11.90911        5.82152
C         -1.36360      -12.41693        5.07169
C         -1.37204      -13.89288        5.24452
C         -0.30017      -14.26664        6.07479
C          0.42549      -13.03933        6.50891
C         -0.10339      -15.62213        6.34873
C         -0.98179      -16.56690        5.79327
C         -2.05759      -16.17176        4.97360
C         -2.25380      -14.81208        4.69765
C         -3.46632       -8.25994       -2.58279
C         -7.38233       -6.79594        6.60144
O         -2.17435      -11.76674        4.42718
C          1.45210      -13.01599        7.46785
C          2.02475      -14.18661        8.05432
N          2.54748      -15.09462        8.57069
Cl        -0.69211      -18.25492        6.15395
Cl        -3.16509      -17.33530        4.27978
C         -1.46202        3.28559        6.80537
C          3.60604       -0.28443       -1.16606
C          2.02274      -11.83006        8.02669
N          2.52772      -10.91316        8.54542
C         -4.83597        7.42656        0.18082
N         -4.51673        7.32153        1.29921
H         -7.37701        4.39916       -5.53385
H         -6.42214        8.95569       -3.74113
H         -3.71150        5.37710       -0.54598
H         -5.97844        2.18914       -1.13604
H          0.02363       -2.33040        3.41645
H         -4.38611       -3.66684        1.40604
H          1.64655       -8.21177        5.88056
H          1.28035      -10.47412        6.28972
H          0.70325      -15.97974        6.96721
H         -3.07251      -14.48921        4.06912
H         -2.58659       -0.63251        4.48848
H          3.30374       -0.08506        1.56332
H          1.24833        0.00825        2.87164
H          0.99475       -0.43746       -2.04668
H         -1.06145       -0.35605       -0.74177
H         -2.64833        0.81779        6.44611
H         -0.24215        3.71933        4.37822
H         -0.16507        2.26426        2.42332
H         -5.22920       -6.18926        1.23347
H         -5.42878       -7.14660       -1.00063
H         -0.99564       -6.96014        1.18161
H         -1.20227       -7.93293       -1.04477
H         -4.07752       -4.09126        4.66702
H         -5.87299       -4.50779        6.25937
H         -6.32616       -8.49263        4.71220
H         -4.54316       -8.07460        3.10537
H         -1.64887        4.32781        6.53300
H         -2.23069        2.98025        7.51787
H         -0.49749        3.25254        7.32379
H          3.45625       -0.75413       -2.14046
H          3.97128        0.73346       -1.34282
H          4.39905       -0.82854       -0.64667
H         -7.25751       -7.76267        7.09708
H         -7.43157       -6.02517        7.37286
H         -8.35038       -6.81615        6.08918
H         -4.29673       -7.82674       -3.14491
H         -2.55479       -8.13217       -3.17113
H         -3.65308       -9.33620       -2.49613

  eps=4.88617
  epsinf=4.88617
  RSolv=8.36
 
