%mem=1000MW
%nprocshared=40
#p wB97XD/6-31g** nosymm pop=esp opt td=(triplet,nstates=3,root=2) scf=(MaxCycle=20000) iop(3/107=0001100000,3/108=0001100000) SCRF=(PCM,Solvent=Generic,Read)

 IT-4Cl opt-TDdft

0 1
C         -0.04401       -0.39848       -0.41562
C          0.01909       -0.22703        0.97493
C          1.29112       -0.17481        1.56848
C          2.45078       -0.26814        0.79632
C          2.39117       -0.42364       -0.59859
C          1.11872       -0.49103       -1.18563
C         -1.26854       -0.22104        1.83948
C         -2.52878        0.17698        1.05591
C         -3.43183       -0.88821        1.00202
C         -2.89641       -2.05708        1.65849
C         -1.62057       -1.69396        2.17383
S         -4.92937       -0.53097        0.17785
C         -4.34236        1.10424       -0.12032
C         -3.04708        1.31746        0.42006
C         -4.88028        2.20717       -0.76762
C         -4.00395        3.32995       -0.75547
S         -2.48956        2.94186        0.08946
C         -0.84749       -2.62710        2.84739
C         -1.37159       -3.92315        3.00214
C         -2.65030       -4.28479        2.49295
C         -3.42045       -3.35313        1.81346
C         -0.82066       -5.10091        3.62828
C         -1.68857       -6.18951        3.50539
C         -2.97637       -5.77501        2.77691
S          0.66115       -5.44497        4.48523
C          0.12247       -7.11083        4.69018
C         -1.15547       -7.33742        4.11514
S         -1.64996       -9.00240        4.32306
C         -0.14424       -9.38120        5.18821
C          0.68795       -8.22908        5.28526
C         -4.40677        4.55565       -1.33891
C         -3.80396        5.80356       -1.52198
C         -2.36947        6.14075       -1.26788
C         -2.14772        7.49233       -1.84558
C         -3.36088        7.97828       -2.36545
C         -4.43062        6.97248       -2.11437
C         -0.96491        8.21311       -1.90329
C         -0.97916        9.47194       -2.51834
C         -2.18292        9.97085       -3.05502
C         -3.37573        9.23338       -2.97865
Cl         0.51304       10.38218       -2.59819
Cl        -2.24326       11.53256       -3.84239
O         -1.52575        5.45141       -0.71264
C         -5.79911        7.18296       -2.34922
C         -6.33112        8.33891       -2.99954
N         -6.83868        9.24700       -3.53058
C         -1.18710        0.68556        3.09814
C         -0.53123        1.92707        3.04839
C         -0.52909        2.78646        4.14851
C         -1.18563        2.44740        5.34321
C         -1.84853        1.21174        5.38584
C         -1.85294        0.34893        4.28594
C         -3.17342       -6.48686        1.41388
C         -4.42727       -6.50037        0.78179
C         -4.59013       -7.06343       -0.48605
C         -3.50965       -7.63407       -1.17768
C         -2.25536       -7.60693       -0.54836
C         -2.08861       -7.04219        0.71861
C         -4.16015       -5.95507        3.76768
C         -4.86423       -7.16867        3.84177
C         -5.86651       -7.36409        4.79396
C         -6.20612       -6.36067        5.71639
C         -5.49571       -5.15316        5.64478
C         -4.49097       -4.95440        4.69351
C          0.26953      -10.60769        5.76326
C         -0.26562      -11.89742        5.82754
C         -1.48682      -12.38554        5.11667
C         -1.52164      -13.85936        5.30267
C         -0.43455      -14.24941        6.10538
C          0.32960      -13.03520        6.50800
C         -0.25843      -15.60675        6.38489
C         -1.17072      -16.53705        5.86101
C         -2.26092      -16.12543        5.06860
C         -2.43720      -14.76411        4.78799
C         -3.69503       -8.28017       -2.53944
C         -7.30986       -6.57698        6.73691
O         -2.30121      -11.72326        4.48937
C          1.38469      -13.02600        7.43508
C          1.95235      -14.20387        8.01198
N          2.47344      -15.11848        8.51816
Cl        -0.90512      -18.22824        6.22485
Cl        -3.40943      -17.27131        4.41319
C         -1.15551        3.37550        6.54482
C          3.65659       -0.48562       -1.43578
C          1.99517      -11.84753        7.96725
N          2.53266      -10.93651        8.46309
C         -6.84410        6.30540       -1.92169
N         -7.75551        5.65400       -1.59058
H         -0.05143        7.81280       -1.48549
H         -4.26724        9.66187       -3.40622
H         -5.40637        4.47052       -1.74258
H         -5.85471        2.24117       -1.23281
H          0.12581       -2.37279        3.24184
H         -4.38997       -3.60907        1.41073
H          1.64868       -8.25080        5.77881
H          1.23326      -10.49225        6.23921
H          0.55819      -15.97645        6.98288
H         -3.26690      -14.42890        4.18066
H         -2.38599       -0.58942        4.36800
H          3.41487       -0.21543        1.29228
H          1.38914       -0.05143        2.63974
H          1.02448       -0.61787       -2.25933
H         -1.00275       -0.46769       -0.91418
H         -2.37229        0.91092        6.28764
H         -0.00914        3.73576        4.06865
H         -0.00610        2.23061        2.15220
H         -5.29257       -6.07768        1.27679
H         -5.57677       -7.05718       -0.93827
H         -1.09865       -7.03564        1.15687
H         -1.39091       -8.03198       -1.04845
H         -3.96668       -4.00754        4.68806
H         -5.72256       -4.35196        6.34090
H         -6.38695       -8.31628        4.81623
H         -4.64314       -7.97021        3.14927
H         -1.32113        4.41502        6.24953
H         -1.91775        3.10760        7.27899
H         -0.18245        3.33044        7.04620
H          3.47677       -0.95944       -2.40300
H          4.04444        0.52100       -1.62791
H          4.44522       -1.04552       -0.92640
H         -7.20976       -7.54893        7.22783
H         -7.30001       -5.80604        7.50961
H         -8.29435       -6.55441        6.25720
H         -4.54868       -7.85504       -3.07180
H         -2.80823       -8.15530       -3.16530
H         -3.87396       -9.35622       -2.43547

  eps=4.88617
  epsinf=4.88617
  RSolv=8.36
 
