%mem=800MW
%nprocshared=64
%chk=ITIC-HSO-w-00022-T2paraS1.chk
%rwf=ITIC-HSO-w-00022-T2paraS1.rwf
#p wB97XD/6-31g** td(50-50,nstates=5) 6D 10F nosymm GFInput scf=(MaxCycle=20000) iop(3/107=0002200000,3/108=0002200000) SCRF=(PCM,Solvent=Generic,Read)

ITIC

0  1
C              -0.1447900000     -0.1523400000     -0.0318900000
C              -0.0576400000      0.0003700000      1.3570500000
C               1.1755000000     -0.2456900000      1.9945500000
C               2.3187200000     -0.6156000000      1.2934700000
C               2.2244400000     -0.7612600000     -0.0964200000
C               1.0022500000     -0.5358100000     -0.7424500000
C               1.0105700000     -0.0620500000      3.4583800000
C              -0.4332400000      0.2585300000      3.6898800000
C              -1.0585700000      0.4015900000      2.3860800000
C              -1.0931300000      0.2959000000      4.9221900000
C              -0.6857100000      0.2135000000      6.2748600000
S               0.9603000000      0.1172000000      6.9404100000
C               0.3388100000      0.1224200000      8.5766200000
C              -1.0793600000      0.1813200000      8.5818300000
C              -1.6546400000      0.2355000000      7.3203300000
C               0.8850700000      0.0610100000      9.8696500000
C              -0.1137200000      0.0751300000     10.8459000000
S              -1.7407800000      0.1668500000     10.2163400000
C               2.2760200000      0.0220200000     10.5196400000
C               1.8687200000      0.0406400000     12.0167300000
C               0.4549200000      0.0328600000     12.1726800000
C               2.6949400000      0.0358300000     13.1308500000
C               2.0876400000      0.0136300000     14.3988200000
C               0.6744000000     -0.0254000000     14.5541100000
C              -0.1519500000     -0.0125200000     13.4401700000
C               0.2680000000     -0.1056700000     16.0495900000
C               1.6581200000     -0.0619300000     16.7010600000
C               2.6555700000      0.0179400000     15.7265700000
S               4.2801800000      0.1239500000     16.3596800000
C               3.6200400000      0.0510400000     17.9929400000
C               2.2038300000     -0.0428200000     17.9956900000
S               1.5847900000     -0.1351900000     19.6302600000
C               3.2290100000     -0.0289600000     20.2990500000
C               4.1954900000      0.0632300000     19.2553500000
C              -0.5343400000      1.1329400000     16.5297800000
C              -1.3466600000      1.0728100000     17.6726200000
C              -2.0021500000      2.2093300000     18.1532000000
C              -1.8695600000      3.4537700000     17.5184700000
C              -1.0437500000      3.5138200000     16.3844900000
C              -0.3875900000      2.3798300000     15.9013600000
C              -2.6100600000      4.6797500000     18.0222300000
C              -0.4620500000     -1.4584400000     16.2610000000
C              -1.8417900000     -1.5792900000     16.0230900000
C              -2.4848700000     -2.8142500000     16.1207000000
C              -1.7801800000     -3.9826000000     16.4558000000
C              -0.4015800000     -3.8598000000     16.6821700000
C               0.2455400000     -2.6248900000     16.5837200000
C               3.6379200000      0.0027800000     21.6534200000
C               2.9829700000     -0.0987200000     22.8847000000
C               3.6084200000      0.0052800000     24.1921700000
C               2.6133200000     -0.4436500000     25.2072500000
C               1.3838600000     -0.6875600000     24.5620000000
C               1.5454800000     -0.4536400000     23.1051600000
C               0.2463700000     -1.0967100000     25.2505300000
C               0.3425300000     -1.2835700000     26.6353500000
C               1.5610100000     -1.0594400000     27.2887600000
C               2.7023000000     -0.6375300000     26.5909700000
C               3.0580900000      1.2878400000     10.0804300000
C               3.8727700000      1.2746000000      8.9376900000
C               4.5108400000      2.4347600000      8.4919300000
C               4.3575800000      3.6575100000      9.1631400000
C               3.5296900000      3.6708600000     10.2972200000
C               2.8906700000      2.5128900000     10.7456600000
C               3.0299300000     -1.3105800000     10.2635900000
C               2.3439700000     -2.4767000000      9.8965900000
C               3.0128100000     -3.6960000000      9.7567900000
C               4.3924800000     -3.8030700000      9.9844000000
C               5.0756700000     -2.6353100000     10.3633900000
C               4.4109100000     -1.4159800000     10.5023800000
C               4.8856200000      0.5052300000     24.4893000000
C               5.7723800000      1.1045200000     23.5403000000
N               6.5469200000      1.6222000000     22.8354700000
O               0.6683200000     -0.5496100000     22.2567400000
C              -2.4905100000     -5.3176600000     16.5917000000
C               5.0793400000      4.9097100000      8.6982300000
C               5.1263300000     -5.1201500000      9.8051400000
C              -2.3402900000      0.8997800000      2.1068200000
C              -3.2305100000      1.4583500000      3.0772900000
N              -4.0075100000      1.9450600000      3.8011500000
O               1.8901200000     -0.1684400000      4.3030500000
C               5.4490800000      0.5357200000     25.8031500000
N               5.9833900000      0.5901900000     26.8403100000
C              -2.9037400000      0.9735900000      0.7947600000
N              -3.4376900000      1.0615300000     -0.2402700000
H              -0.5235500000     -1.6059400000     27.2016100000
H               1.6311500000     -1.2149500000     28.3593300000
H              -0.6843000000     -1.2677000000     24.7237800000
H               3.6202100000     -0.4831900000     27.1360700000
H               4.7115700000      0.1135800000     21.7205300000
H               5.2543500000      0.1418700000     19.4544000000
H              -1.2279000000     -0.0315300000     13.5382300000
H               3.7709000000      0.0532100000     13.0327700000
H              -2.7151000000      0.2961600000      7.1231800000
H              -2.1688300000      0.3872000000      4.8563800000
H              -1.0654200000      0.0043900000     -0.5718100000
H               0.9335800000     -0.6608300000     -1.8171000000
H               3.0949200000     -1.0530900000     -0.6724600000
H               3.2520100000     -0.7889800000      1.8147200000
H               0.2454200000      2.4804500000     15.0287900000
H              -3.5529400000     -2.8647600000     15.9332600000
H              -2.4291600000     -0.7065200000     15.7660300000
H               0.1834400000     -4.7370500000     16.9397400000
H               1.3134600000     -2.5851500000     16.7566700000
H              -0.9052900000      4.4585400000     15.8681300000
H              -2.6223400000      2.1183100000     19.0392200000
H              -1.4822100000      0.1353800000     18.1959400000
H               4.9821700000     -0.5427600000     10.7921600000
H               6.1438900000     -2.6738100000     10.5529200000
H               1.2762000000     -2.4496800000      9.7203500000
H               2.4439300000     -4.5734700000      9.4660800000
H               2.2549800000      2.5770400000     11.6199100000
H               3.3760000000      4.5978500000     10.8407200000
H               5.1337600000      2.3798200000      7.6048200000
H               4.0237900000      0.3552600000      8.3872000000
H              -2.7871000000      4.6250400000     19.0987200000
H              -2.0537000000      5.5973400000     17.8170800000
H              -3.5863600000      4.7724500000     17.5329900000
H              -1.7952200000     -6.1533100000     16.4877700000
H              -2.9687300000     -5.4063800000     17.5735400000
H              -3.2726400000     -5.4322100000     15.8367400000
H               5.2498000000      4.8961600000      7.6193300000
H               4.5126700000      5.8121000000      8.9395900000
H               6.0576700000      4.9974700000      9.1842800000
H               5.9021500000     -5.2512200000     10.5639700000
H               4.4442000000     -5.9705400000      9.8685300000
H               5.6166500000     -5.1626300000      8.8262100000
                                                   
  eps=4.53299                                      
  epsinf=4.53299                                   
  RSolv=8.11                                       

