%mem=800MW
%nprocshared=64
%chk=ITIC-HSO-w-00022-T1paraS1.chk
%rwf=ITIC-HSO-w-00022-T1paraS1.rwf
#p wB97XD/6-31g** td(50-50,nstates=5) 6D 10F nosymm GFInput scf=(MaxCycle=20000) iop(3/107=0002200000,3/108=0002200000) SCRF=(PCM,Solvent=Generic,Read)

ITIC

0  1
C              -0.1676800000     -0.1383100000     -0.0100000000
C              -0.0664000000      0.0327800000      1.3757600000
C               1.1690400000     -0.2111300000      2.0079700000
C               2.3050800000     -0.5932900000      1.3015300000
C               2.1981900000     -0.7539500000     -0.0855300000
C               0.9714300000     -0.5342500000     -0.7254900000
C               1.0144800000     -0.0198900000      3.4740600000
C              -0.4213800000      0.3026200000      3.7129100000
C              -1.0572600000      0.4532300000      2.4083000000
C              -1.0786800000      0.3345500000      4.9426200000
C              -0.6717500000      0.2376000000      6.2937900000
S               0.9760200000      0.1331100000      6.9543900000
C               0.3572800000      0.1240700000      8.5927100000
C              -1.0698700000      0.1839400000      8.5970200000
C              -1.6403500000      0.2503900000      7.3405800000
C               0.9014000000      0.0547400000      9.8709900000
C              -0.1060000000      0.0635200000     10.8694000000
S              -1.7388300000      0.1576300000     10.2307500000
C               2.2922300000      0.0034900000     10.5183400000
C               1.8863100000      0.0188800000     12.0168600000
C               0.4509200000      0.0115000000     12.1643700000
C               2.7030500000      0.0183300000     13.1199600000
C               2.0926900000     -0.0047900000     14.4058000000
C               0.6579300000     -0.0495800000     14.5524700000
C              -0.1589300000     -0.0363800000     13.4495800000
C               0.2527200000     -0.1271700000     16.0494600000
C               1.6423300000     -0.0695400000     16.6989600000
C               2.6484800000      0.0103400000     15.7020700000
S               4.2785100000      0.1215300000     16.3448700000
C               3.6105000000      0.0551900000     17.9776600000
C               2.1854200000     -0.0429900000     17.9790900000
S               1.5687800000     -0.1242200000     19.6165300000
C               3.2142900000     -0.0073400000     20.2810400000
C               4.1807000000      0.0787700000     19.2354800000
C              -0.5565300000      1.1083700000     16.5256000000
C              -1.3761600000      1.0462800000     17.6631800000
C              -2.0376700000      2.1812800000     18.1388100000
C              -1.9037200000      3.4259600000     17.5046800000
C              -1.0696800000      3.4881800000     16.3768500000
C              -0.4072200000      2.3558200000     15.8987900000
C              -2.6510500000      4.6499500000     18.0029700000
C              -0.4648100000     -1.4850700000     16.2678700000
C              -1.8435500000     -1.6194500000     16.0315400000
C              -2.4749500000     -2.8596800000     16.1356400000
C              -1.7590300000     -4.0199700000     16.4758000000
C              -0.3814400000     -3.8836900000     16.6997700000
C               0.2541900000     -2.6432900000     16.5943900000
C               3.6226500000      0.0377200000     21.6343600000
C               2.9702400000     -0.0580800000     22.8636300000
C               3.6056100000      0.0525300000     24.1723400000
C               2.6172800000     -0.4080600000     25.1905700000
C               1.3856500000     -0.6479000000     24.5497000000
C               1.5395400000     -0.4105600000     23.0905700000
C               0.2530100000     -1.0635400000     25.2426100000
C               0.3590200000     -1.2611000000     26.6249700000
C               1.5817300000     -1.0439900000     27.2733800000
C               2.7174800000     -0.6155600000     26.5714900000
C               3.0805100000      1.2664300000     10.0825700000
C               3.9026700000      1.2508600000      8.9451500000
C               4.5465100000      2.4093900000      8.5037800000
C               4.3914100000      3.6326900000      9.1737200000
C               3.5549500000      3.6486300000     10.3014600000
C               2.9098900000      2.4923700000     10.7454200000
C               3.0349100000     -1.3338000000     10.2557900000
C               2.3389500000     -2.4924500000      9.8845300000
C               2.9976800000     -3.7166800000      9.7385800000
C               4.3763700000     -3.8359400000      9.9649600000
C               5.0694100000     -2.6754800000     10.3492800000
C               4.4149900000     -1.4514800000     10.4940700000
C               4.8683400000      0.5689000000     24.4674900000
C               5.7542800000      1.1631200000     23.5117600000
N               6.5254900000      1.6770400000     22.8016500000
O               0.6536500000     -0.5086900000     22.2497400000
C              -2.4571300000     -5.3606900000     16.6188800000
C               5.1198900000      4.8827300000      8.7137400000
C               5.0995400000     -5.1580500000      9.7796800000
C              -2.3212100000      0.9762000000      2.1323600000
C              -3.2044200000      1.5381700000      3.1100500000
N              -3.9725200000      2.0284700000      3.8398800000
O               1.9034200000     -0.1289300000      4.3102300000
C               5.4243100000      0.6290800000     25.7855200000
N               5.9510600000      0.7112800000     26.8240100000
C              -2.8780800000      1.0814700000      0.8175700000
N              -3.4045000000      1.1990900000     -0.2176200000
H              -0.5034400000     -1.5880200000     27.1942700000
H               1.6588100000     -1.2102400000     28.3417700000
H              -0.6809400000     -1.2316000000     24.7208600000
H               3.6404700000     -0.4681600000     27.1100000000
H               4.6961400000      0.1537600000     21.6994900000
H               5.2392000000      0.1616600000     19.4351300000
H              -1.2351700000     -0.0566700000     13.5433900000
H               3.7792500000      0.0387500000     13.0258900000
H              -2.7007100000      0.3138200000      7.1431200000
H              -2.1543200000      0.4315400000      4.8785600000
H              -1.0940100000      0.0120000000     -0.5420800000
H               0.8937300000     -0.6737500000     -1.7976400000
H               3.0631800000     -1.0548200000     -0.6653000000
H               3.2419800000     -0.7648300000      1.8167800000
H               0.2321400000      2.4583300000     15.0310700000
H              -3.5426300000     -2.9211500000     15.9494000000
H              -2.4391300000     -0.7535800000     15.7702400000
H               0.2120500000     -4.7542500000     16.9605000000
H               1.3219700000     -2.5927500000     16.7655900000
H              -0.9293900000      4.4332800000     15.8617600000
H              -2.6638400000      2.0889700000     19.0204400000
H              -1.5125700000      0.1089400000     18.1863000000
H               4.9934900000     -0.5846500000     10.7885100000
H               6.1372600000     -2.7239300000     10.5384300000
H               1.2713100000     -2.4561700000      9.7091500000
H               2.4213000000     -4.5880600000      9.4444600000
H               2.2675600000      2.5588000000     11.6146400000
H               3.3989800000      4.5762700000     10.8431200000
H               5.1755500000      2.3528700000      7.6211400000
H               4.0548400000      0.3313600000      8.3953500000
H              -2.8301300000      4.5976900000     19.0792500000
H              -2.0986800000      5.5695100000     17.7961300000
H              -3.6267300000      4.7362000000     17.5113600000
H              -1.7538700000     -6.1904500000     16.5219100000
H              -2.9365600000     -5.4472800000     17.6003100000
H              -3.2366100000     -5.4874100000     15.8631200000
H               5.2923600000      4.8713200000      7.6351300000
H               4.5571100000      5.7871000000      8.9565500000
H               6.0976900000      4.9642100000      9.2019100000
H               5.8719000000     -5.3004300000     10.5400000000
H               4.4100000000     -6.0029300000      9.8355400000
H               5.5924800000     -5.1982900000      8.8019900000
                                                   
  eps=4.53299                                      
  epsinf=4.53299                                   
  RSolv=8.11                                       
 
