%mem=1000MW
%nprocshared=40
#p wB97XD/6-31g** nosymm pop=esp opt td=(nstates=2,root=1) scf=(MaxCycle=20000) iop(3/107=0016000000,3/108=0016000000) SCRF=(PCM,Solvent=Generic,Read)

 Y6 opt-TDdft

0 1
C         -0.02875        0.38393        0.05254
C          0.07358        0.17216        1.43311
C          1.28506        0.45214        2.09236
C          2.41276        0.91753        1.42127
C          2.30247        1.11980        0.05163
C          1.09222        0.86196       -0.61701
C         -0.89885       -0.34756        2.42516
C         -0.30083       -0.15924        3.75737
C          1.13277        0.19980        3.54834
C         -1.01061       -0.11452        4.93601
C         -0.65549        0.04700        6.31096
S          0.98173       -0.08177        6.97909
C          0.35783        0.05243        8.58789
C         -1.03753        0.23495        8.59416
C         -1.63198        0.23392        7.32007
S         -1.71844        0.43295       10.21804
C         -0.11096        0.27126       10.88027
C          0.88535        0.08387        9.89835
N          2.11662       -0.06170       10.50039
C          1.91796        0.06469       11.87605
C          0.51388        0.22823       12.13083
C          2.83493        0.08778       12.95326
C          2.35085       -0.01576       14.30875
C          0.93726        0.04128       14.57719
C          0.01580        0.23374       13.48128
N          4.22590        0.16479       12.97289
C          4.62292        0.03818       14.28889
C          3.47566       -0.07881       15.12466
C          5.82102        0.02747       15.00756
C          5.59044       -0.10848       16.39683
S          3.87319       -0.21623       16.81927
C          6.75264       -0.14727       17.19242
C          7.89773       -0.02038       16.39561
S          7.52952        0.09702       14.67490
N         -1.25257        0.33820       13.85849
S         -1.26856        0.19318       15.50680
N          0.35362       -0.00431       15.76808
C          9.30396       -0.11258       16.81452
C         10.11712        0.94420       17.14841
C         11.50408        0.95879       17.55491
C         11.87758        2.36241       17.81349
C         10.76911        3.20756       17.57239
C          9.62298        2.37155       17.14934
C         10.81438        4.58691       17.72920
C         12.01674        5.15357       18.14385
C         13.12607        4.33552       18.38880
C         13.08125        2.95039       18.23252
F         14.27663        4.91111       18.78915
F         12.12340        6.49007       18.31353
C         12.37397       -0.16323       17.68713
C         13.73298       -0.07147       18.08946
N         14.85825       -0.05676       18.41568
O          8.49987        2.76179       16.86059
C          6.77632       -0.29224       18.69202
C          5.08892        0.78797       11.95503
C          3.24574       -0.72647        9.82901
C         -3.11402        0.40427        7.08554
O          2.01100        0.30355        4.39204
C         -2.07749       -1.00536        2.12875
C         -2.59830       -1.14908        0.80141
N         -3.07643       -1.29269       -0.25167
F          3.34609        1.57342       -0.65424
F          1.02798        1.08828       -1.93555
C         11.98914       -1.50484       17.42645
N         11.72807       -2.62993       17.22541
C         -2.87588       -1.69330        3.10137
N         -3.55408       -2.29770        3.83152
H         13.97765        2.38778       18.44123
H          9.94994        5.20931       17.53834
H          9.69307       -1.12283       16.83176
H          7.80015       -0.34911       19.05741
H          6.25045       -1.19859       19.00372
H          6.29082        0.56242       19.17069
H          5.66624        1.58353       12.42343
H          4.46939        1.24039       11.18781
H          5.76492        0.05923       11.51138
H          2.85923       -1.51473        9.18487
H          3.88224       -1.19568       10.57209
H          3.82275       -0.02172        9.23249
H         -3.31984        1.07649        6.25185
H         -3.59617        0.82756        7.96624
H         -3.58908       -0.55745        6.87927
H         -2.08377       -0.19396        4.81764
H          3.34272        1.12006        1.93501
H         -0.93018        0.21361       -0.51500

  eps=3.36
  epsinf=3.36
  RSolv=7.28

 
