%mem=800MW
%nprocshared=64
#p wB97XD/6-31g** opt td=(triplet,nstates=3,root=2) pop=esp scf=(MaxCycle=20000) nosymm iop(3/107=0001100000,3/108=0001100000) SCRF=(PCM,Solvent=Generic,Read)

IT-4Cl

0  1
C         -4.99143       15.47720       -0.67095
C         -4.74591       14.12984       -0.39623
C         -4.43384       13.75360        0.92252
C         -4.36553       14.66425        1.96550
C         -4.60844       16.01634        1.68954
C         -4.91702       16.41336        0.37291
C         -4.20532       12.28560        0.96991
C         -4.34874       11.78958       -0.43350
C         -4.75892       12.91396       -1.25659
C         -4.02909       10.50977       -0.89575
C         -3.66304        9.28777       -0.28112
S         -3.55319        8.89469        1.44891
C         -3.12705        7.23814        1.08339
C         -3.06212        7.02736       -0.31921
C         -3.35835        8.14873       -1.08016
C         -2.81112        6.08443        1.82067
C         -2.51588        5.00913        0.97837
S         -2.61324        5.37259       -0.72643
C         -2.20313        3.82312        1.73888
C         -2.35163        4.16165        3.11303
C         -2.73416        5.65493        3.29324
C         -1.80974        2.53725        1.32721
C         -1.57628        1.58675        2.30912
C         -1.74405        1.91927        3.68275
C         -2.12677        3.20853        4.09476
C         -1.09377        0.12265        2.13162
C         -1.06353       -0.32127        3.60137
C         -1.44782        0.72742        4.44157
S         -1.49128        0.31934        6.13868
C         -0.98119       -1.31805        5.73027
C         -0.79770       -1.49061        4.33314
S         -0.29913       -3.12501        3.96258
C         -0.32745       -3.56399        5.68450
C         -0.72401       -2.45380        6.48460
C          0.31340        0.17781        1.47870
C          0.45606        0.26580        0.08414
C          1.71331        0.41609       -0.50482
C          2.88127        0.48726        0.27150
C          2.73419        0.40541        1.66474
C          1.47759        0.25772        2.25721
C          4.25134        0.62203       -0.36931
C         -2.11373       -0.77067        1.37618
C         -1.70704       -1.94559        0.72424
C         -2.63734       -2.79691        0.12329
C         -4.01252       -2.51608        0.15341
C         -4.41648       -1.34575        0.81508
C         -3.48879       -0.49150        1.41615
C          0.00722       -4.79820        6.29321
C          0.39606       -6.05543        5.82124
C          0.39983       -6.50421        4.39471
C          0.64359       -7.97011        4.41593
C          0.83373       -8.38804        5.74528
C          0.75128       -7.20088        6.64141
C          1.06754       -9.74192        5.99712
C          1.10497      -10.64213        4.91990
C          0.91814      -10.20302        3.59384
C          0.68629       -8.84453        3.34122
C         -4.13342        5.85300        3.93501
C         -4.47713        7.06078        4.56400
C         -5.75725        7.26513        5.08276
C         -6.75057        6.27657        4.99046
C         -6.40936        5.07855        4.34434
C         -5.12918        4.87094        3.82367
C         -1.57853        6.34146        4.06997
C         -1.55084        6.33342        5.47446
C         -0.47106        6.87151        6.17765
C          0.62814        7.43675        5.51126
C          0.60330        7.43019        4.10815
C         -0.47464        6.89080        3.40149
O          0.22676       -5.82188        3.39497
C          1.04282       -7.21399        8.01547
C          1.16219       -6.04853        8.83535
N          1.29731       -5.14761        9.56665
Cl         0.96320      -11.31007        2.23982
Cl         1.39318      -12.33006        5.28195
C         -5.01806       -3.43358       -0.51956
C         -8.12837        6.49175        5.59126
C          1.78195        8.05935        6.27725
C         -5.16515       12.89028       -2.60133
C         -5.37245       11.70355       -3.37169
N         -5.58331       10.78464       -4.06156
O         -3.93821       11.63374        1.96939
Cl        -4.51478       17.16908        3.00239
Cl        -5.22283       18.09168       -0.01734
C          1.31431       -8.40125        8.76321
N          1.53522       -9.32684        9.44056
C         -5.47689       14.05907       -3.36251
N         -5.73677       14.96700       -4.04990
H         -4.13010       14.34067        2.97020
H         -5.23006       15.83443       -1.65918
H         -4.04169       10.40009       -1.97128
H         -3.37038        8.18167       -2.15996
H         -2.24277        3.44189        5.14330
H         -1.69363        2.30416        0.27857
H         -0.80519       -2.51780        7.55994
H         -0.08342       -4.72474        7.36817
H          1.21523      -10.13228        6.99043
H          0.54200       -8.48770        2.33055
H         -4.91860        3.93149        3.32846
H         -0.49171        6.85022        7.26278
H         -2.37805        5.91410        6.03331
H          1.43477        7.85139        3.55211
H         -0.43895        6.89988        2.31949
H         -7.14928        4.29084        4.24348
H         -5.97925        8.21092        5.56670
H         -3.74317        7.84964        4.66495
H         -0.41414        0.21076       -0.55794
H          1.78034        0.47852       -1.58643
H          1.41705        0.21241        3.33705
H          3.60974        0.45889        2.30408
H         -3.85285        0.39410        1.92174
H         -5.47086       -1.09360        0.86944
H         -2.27963       -3.69470       -0.37054
H         -0.65787       -2.20584        0.67444
H         -8.49174        7.50546        5.40356
H         -8.85916        5.78991        5.18423
H         -8.10352        6.35014        6.67753
H          2.72280        7.96894        5.72936
H          1.60276        9.12691        6.44742
H          1.91401        7.58957        7.25466
H         -4.73771       -4.48379       -0.40663
H         -6.01887       -3.30518       -0.10171
H         -5.07952       -3.22489       -1.59352
H          4.18901        1.09320       -1.35267
H          4.92418        1.21978        0.25030
H          4.71635       -0.36108       -0.50377
                                               
  eps=4.88617                                      
  epsinf=4.88617                                   
  RSolv=8.36                                       
   
