%mem=800MW
%nprocshared=64
#p wB97XD/6-31g** opt td=(nstates=2,root=1) pop=esp scf=(MaxCycle=20000) nosymm iop(3/107=0001100000,3/108=0001100000) SCRF=(PCM,Solvent=Generic,Read)

IT-4Cl

0  1
C         -4.99081       15.47734       -0.67090
C         -4.74543       14.12995       -0.39620
C         -4.43337       13.75367        0.92254
C         -4.36492       14.66430        1.96552
C         -4.60768       16.01642        1.68957
C         -4.91627       16.41348        0.37296
C         -4.20506       12.28564        0.96991
C         -4.34859       11.78964       -0.43349
C         -4.75861       12.91409       -1.25657
C         -4.02909       10.50980       -0.89576
C         -3.66318        9.28776       -0.28113
S         -3.55340        8.89465        1.44890
C         -3.12735        7.23807        1.08337
C         -3.06243        7.02729       -0.31923
C         -3.35856        8.14869       -1.08018
C         -2.81145        6.08435        1.82065
C         -2.51623        5.00904        0.97834
S         -2.61365        5.37249       -0.72645
C         -2.20344        3.82304        1.73885
C         -2.35192        4.16159        3.11300
C         -2.73447        5.65486        3.29322
C         -1.81003        2.53718        1.32719
C         -1.57649        1.58670        2.30912
C         -1.74425        1.91924        3.68275
C         -2.12700        3.20849        4.09475
C         -1.09390        0.12262        2.13163
C         -1.06364       -0.32127        3.60139
C         -1.44796        0.72741        4.44158
S         -1.49141        0.31933        6.13868
C         -0.98123       -1.31804        5.73029
C         -0.79775       -1.49059        4.33316
S         -0.29905       -3.12495        3.96260
C         -0.32740       -3.56395        5.68451
C         -0.72399       -2.45378        6.48461
C          0.31328        0.17785        1.47874
C          0.45595        0.26579        0.08418
C          1.71321        0.41608       -0.50477
C          2.88116        0.48729        0.27157
C          2.73406        0.40546        1.66481
C          1.47745        0.25777        2.25727
C          4.25124        0.62202       -0.36923
C         -2.11379       -0.77077        1.37620
C         -1.70706       -1.94580        0.72448
C         -2.63731       -2.79720        0.12358
C         -4.01250       -2.51636        0.15354
C         -4.41650       -1.34591        0.81500
C         -3.48885       -0.49158        1.41600
C          0.00731       -4.79815        6.29321
C          0.39623       -6.05534        5.82120
C          0.40004       -6.50410        4.39466
C          0.64383       -7.96999        4.41586
C          0.83396       -8.38794        5.74520
C          0.75150       -7.20080        6.64134
C          1.06775       -9.74183        5.99703
C          1.10520      -10.64202        4.91979
C          0.91840      -10.20289        3.59373
C          0.68655       -8.84439        3.34113
C         -4.13370        5.85292        3.93502
C         -4.47740        7.06073        4.56394
C         -5.75751        7.26510        5.08273
C         -6.75083        6.27653        4.99051
C         -6.40963        5.07847        4.34445
C         -5.12946        4.87084        3.82375
C         -1.57884        6.34140        4.06993
C         -1.55100        6.33315        5.47441
C         -0.47122        6.87130        6.17756
C          0.62783        7.43679        5.51112
C          0.60283        7.43043        4.10801
C         -0.47511        6.89099        3.40140
O          0.22696       -5.82175        3.39492
C          1.04312       -7.21390        8.01538
C          1.16262       -6.04842        8.83522
N          1.29794       -5.14751        9.56650
Cl         0.96348      -11.30992        2.23970
Cl         1.39337      -12.32996        5.28182
C         -5.01800       -3.43397       -0.51932
C         -8.12861        6.49173        5.59132
C          1.78162        8.05947        6.27707
C         -5.16485       12.89047       -2.60131
C         -5.37226       11.70378       -3.37170
N         -5.58326       10.78491       -4.06157
O         -3.93810       11.63371        1.96938
Cl        -4.51380       17.16915        3.00242
Cl        -5.22189       18.09184       -0.01727
C          1.31473       -8.40116        8.76309
N          1.53572       -9.32674        9.44041
C         -5.47643       14.05932       -3.36247
N         -5.73617       14.96732       -4.04982
H         -4.12950       14.34069        2.97022
H         -5.22942       15.83460       -1.65912
H         -4.04167       10.40012       -1.97128
H         -3.37058        8.18164       -2.15998
H         -2.24296        3.44187        5.14329
H         -1.69394        2.30408        0.27856
H         -0.80516       -2.51779        7.55996
H         -0.08338       -4.72473        7.36816
H          1.21540      -10.13222        6.99033
H          0.54227       -8.48754        2.33047
H         -4.91888        3.93136        3.32859
H         -0.49175        6.84984        7.26269
H         -2.37807        5.91360        6.03328
H          1.43418        7.85183        3.55194
H         -0.43954        6.90024        2.31940
H         -7.14954        4.29075        4.24365
H         -5.97950        8.21090        5.56663
H         -3.74343        7.84958        4.66481
H         -0.41424        0.21070       -0.55791
H          1.78025        0.47847       -1.58638
H          1.41690        0.21247        3.33711
H          3.60960        0.45896        2.30416
H         -3.85295        0.39411        1.92143
H         -5.47088       -1.09375        0.86922
H         -2.27957       -3.69507       -0.37008
H         -0.65789       -2.20608        0.67481
H         -8.49202        7.50541        5.40351
H         -8.85939        5.78983        5.18440
H         -8.10373        6.35026        6.67760
H          2.72242        7.96930        5.72906
H          1.60226        9.12698        6.44741
H          1.91386        7.58958        7.25440
H         -4.73768       -4.48417       -0.40615
H         -6.01884       -3.30546       -0.10158
H         -5.07937       -3.22550       -1.59333
H          4.18893        1.09319       -1.35259
H          4.92408        1.21977        0.25039
H          4.71622       -0.36109       -0.50367
                                                   
  eps=4.88617                                      
  epsinf=4.88617                                   
  RSolv=8.36                                       
                                                   

