%mem=1000MW
%nprocshared=40
#p wB97XD/6-31g** nosymm pop=esp opt td=(nstates=2,root=1) scf=(MaxCycle=20000) iop(3/107=0001100000,3/108=0001100000) SCRF=(PCM,Solvent=Generic,Read)

 IT-4Cl opt-TDdft

0 1
C         -0.49083       -0.20833       -0.37012
C         -0.34689       -0.10252        1.02119
C          0.95595       -0.04797        1.54285
C          2.06901       -0.07755        0.70053
C          1.92942       -0.16734       -0.69409
C          0.62592       -0.23530       -1.20957
C         -1.57718       -0.17393        1.96330
C         -2.89491        0.20974        1.27899
C         -3.76424       -0.90341        1.21945
C         -3.15902       -2.05803        1.78716
C         -1.86043       -1.66948        2.25195
S         -5.31283       -0.56920        0.49248
C         -4.81209        1.10128        0.25925
C         -3.49528        1.34713        0.74094
C         -5.44701        2.21767       -0.29618
C         -4.62802        3.34703       -0.26772
S         -3.06727        3.02266        0.48807
C         -1.02973       -2.59616        2.85121
C         -1.51216       -3.91248        2.99555
C         -2.81351       -4.30061        2.54076
C         -3.63883       -3.38211        1.92990
C         -0.90514       -5.07973        3.57031
C         -1.74929       -6.18393        3.47299
C         -3.08036       -5.80359        2.81205
S          0.62271       -5.39460        4.35517
C          0.13319       -7.06896        4.56596
C         -1.15703       -7.32899        4.05016
S         -1.60671       -8.99298        4.27610
C         -0.05822       -9.33480        5.07167
C          0.74868       -8.18544        5.13750
C         -4.99950        4.72195       -0.63845
C         -4.78934        5.32710       -1.85242
C         -4.10666        4.61975       -3.00072
C         -4.00680        5.61496       -4.09658
C         -4.60925        6.82042       -3.66631
C         -5.10966        6.67152       -2.28920
C         -3.44847        5.45411       -5.35315
C         -3.47835        6.53488       -6.24758
C         -4.08020        7.74130       -5.84416
C         -4.64641        7.89360       -4.56921
Cl        -2.76240        6.33206       -7.83978
Cl        -4.15093        9.12048       -6.93002
O         -3.71657        3.46108       -3.02602
C         -5.79004        7.67994       -1.54093
C         -5.94440        9.02535       -1.97213
N         -6.09812       10.14912       -2.26779
C         -1.44983        0.67938        3.25513
C         -0.81907        1.93429        3.22931
C         -0.77425        2.74002        4.36843
C         -1.35905        2.33097        5.57853
C         -1.99893        1.08250        5.59623
C         -2.04848        0.27399        4.45735
C         -3.31164       -6.49937        1.44538
C         -4.59149       -6.55216        0.86985
C         -4.78726       -7.09934       -0.40006
C         -3.71618       -7.61228       -1.14978
C         -2.43713       -7.54515       -0.57621
C         -2.23701       -6.99633        0.69289
C         -4.21172       -6.03790        3.85173
C         -4.87655       -7.27293        3.93055
C         -5.83224       -7.51449        4.91937
C         -6.16067       -6.53864        5.87481
C         -5.48461       -5.31162        5.80081
C         -4.52649       -5.06662        4.81344
C          0.40414      -10.56305        5.64199
C         -0.09854      -11.84284        5.72954
C         -1.33229      -12.36485        5.07377
C         -1.28768      -13.84323        5.21933
C         -0.15059      -14.21259        5.95870
C          0.56827      -12.98157        6.38811
C          0.11022      -15.56942        6.17100
C         -0.77754      -16.52286        5.65432
C         -1.92734      -16.13297        4.93163
C         -2.18155      -14.77557        4.70996
C         -3.93744       -8.24201       -2.51353
C         -7.21932       -6.80240        6.93093
O         -2.20527      -11.72614        4.50439
C          1.59815      -12.94300        7.31253
C          2.18203      -14.10719        7.91361
N          2.70759      -15.00434        8.44088
Cl        -0.41456      -18.20952        5.93171
Cl        -3.04905      -17.30849        4.29246
C         -1.28077        3.20035        6.82066
C          3.14222       -0.15743       -1.60741
C          2.17923      -11.73919        7.83447
N          2.68828      -10.80744        8.31658
C         -6.40186        7.45847       -0.27821
N         -6.93259        7.33533        0.76025
H         -2.99754        4.51415       -5.64130
H         -5.09876        8.83942       -4.31906
H         -5.47610        5.26894        0.16562
H         -6.44328        2.23358       -0.71175
H         -0.04528       -2.32681        3.20469
H         -4.62209       -3.65247        1.57340
H          1.72909       -8.18418        5.59152
H          1.38286      -10.42202        6.08088
H          0.97763      -15.91805        6.70676
H         -3.05242      -14.46080        4.15181
H         -2.56389       -0.67554        4.52259
H          3.05905       -0.02527        1.14200
H          1.11481        0.02852        2.61107
H          0.47158       -0.31072       -2.28088
H         -1.47404       -0.27476       -0.81885
H         -2.46987        0.72932        6.50785
H         -0.27553        3.70179        4.30774
H         -0.34770        2.29086        2.32290
H         -5.45020       -6.17441        1.41051
H         -5.79238       -7.12682       -0.80862
H         -1.22876       -6.95555        1.08552
H         -1.57946       -7.92449       -1.12228
H         -4.02818       -4.10588        4.80779
H         -5.70300       -4.53104        6.52237
H         -6.32634       -8.48043        4.94309
H         -4.66240       -8.05381        3.21269
H         -1.42897        4.25568        6.57878
H         -2.03188        2.91388        7.55918
H         -0.29776        3.10880        7.29578
H          2.94018       -0.67079       -2.54990
H          3.43277        0.87105       -1.84912
H          4.00266       -0.63811       -1.13600
H         -7.06175       -7.76924        7.41702
H         -7.21770       -6.03178        7.70376
H         -8.21837       -6.82334        6.48266
H         -4.80730       -7.81322       -3.01595
H         -3.06953       -8.10690       -3.16287
H         -4.11118       -9.31956       -2.41693

  eps=4.88617
  epsinf=4.88617
  RSolv=8.36
 
