%mem=800MW
%nprocshared=40
%chk=IT-M-TDDFT-S1toT1-Singlet.chk
#p wB97XD/6-31g** td=(nstates=1) scf=(MaxCycle=20000) iop(3/107=0003000000,3/108=0003000000) SCRF=(PCM,Solvent=Generic,Read)

IT-M-sp-wB97XD-w-0003-anion

0  1
C               0.1291900000     -0.5085500000      0.0425700000
C               0.1509000000     -0.4006200000      1.4388500000
C               1.3847500000     -0.2166100000      2.0923300000
C               2.5850400000     -0.1485200000      1.3921400000
C               2.5497200000     -0.2605400000     -0.0000300000
C               1.3311400000     -0.4375900000     -0.6864800000
C               1.1563400000     -0.1157300000      3.5525600000
C              -0.3174500000     -0.2140900000      3.7630500000
C              -0.9312400000     -0.4637900000      2.4607900000
C              -0.9976800000     -0.0126700000      4.9584600000
C              -0.6146100000      0.2131400000      6.3092500000
S               1.0188200000      0.2762500000      7.0086100000
C               0.3631300000      0.5330100000      8.6079200000
C              -1.0579900000      0.5682500000      8.5743400000
C              -1.6026600000      0.3941600000      7.3090900000
C               0.8776600000      0.7012200000      9.8976700000
C              -0.1514800000      0.8620800000     10.8473000000
S              -1.7649300000      0.8155300000     10.1701300000
C               0.3709100000      1.0203200000     12.1551200000
C               1.8053100000      1.0030100000     12.0462900000
C               2.2508700000      0.8036300000     10.5743300000
C              -0.2750900000      1.1596200000     13.4097600000
C               0.5119900000      1.2707400000     14.5318900000
C               1.9465800000      1.2592500000     14.4228200000
C               2.5924900000      1.1224800000     13.1676300000
C               0.0653000000      1.3824000000     16.0125400000
C               1.4376800000      1.4441800000     16.6944000000
C               2.4681000000      1.3936200000     15.7341000000
S               4.0794500000      1.5083300000     16.4080200000
C               3.3692200000      1.6183200000     18.0181300000
C               1.9483700000      1.5719500000     17.9898800000
S               1.2872100000      1.6577300000     19.6050600000
C               2.9181000000      1.7697300000     20.3037900000
C               3.9096800000      1.7338200000     19.2921700000
C              -0.7380600000      0.1017500000     16.3568500000
C              -2.1193900000      0.0277800000     16.1173400000
C              -2.8276800000     -1.1548400000     16.3429600000
C              -2.1881200000     -2.3127300000     16.8118900000
C              -0.8040500000     -2.2387800000     17.0365200000
C              -0.0926100000     -1.0590500000     16.8096800000
C              -2.9601800000     -3.5897300000     17.0906600000
C              -0.6768800000      2.7099300000     16.3229000000
C              -1.5271300000      2.8239800000     17.4337700000
C              -2.1294200000      4.0418100000     17.7579800000
C              -1.9008400000      5.1975000000     16.9947900000
C              -1.0350700000      5.0838000000     15.8954900000
C              -0.4325000000      3.8677800000     15.5674300000
C               3.2911900000      1.9040400000     21.6695700000
C               2.6054500000      1.9073700000     22.8777400000
C               1.1548500000      1.6215500000     23.0844400000
C               0.9628300000      1.4499600000     24.5443300000
C               2.1865800000      1.6761100000     25.2055800000
C               3.2118500000      2.0627000000     24.1977800000
C               2.2513700000      1.5230200000     26.5947600000
C               1.0974600000      1.1582800000     27.3156400000
C              -0.1154300000      0.9594400000     26.6268200000
C              -0.1912500000      1.1017800000     25.2379100000
C               2.9768900000      2.0430400000      9.9851600000
C               3.7716800000      1.9295100000      8.8334800000
C               4.3661000000      3.0521700000      8.2538600000
C               4.1903700000      4.3350500000      8.7960800000
C               3.3830400000      4.4467700000      9.9387600000
C               2.7846200000      3.3263200000     10.5196900000
C               3.0787300000     -0.5048700000     10.5080200000
C               4.4654800000     -0.4916500000     10.7337100000
C               5.2003600000     -1.6774000000     10.7687000000
C               4.5840000000     -2.9262200000     10.5830000000
C               3.1977100000     -2.9355900000     10.3689800000
C               2.4576900000     -1.7500800000     10.3366100000
O               0.2856700000      1.5276000000     22.2247300000
C               4.4843200000      2.5587700000     24.4977400000
C               5.3995400000      3.0908600000     23.5348700000
N               6.1928500000      3.5551300000     22.8138300000
H              -1.0059700000      0.6861300000     27.1823500000
C              -2.5828700000      6.5115800000     17.3294300000
C               4.8700900000      5.5473200000      8.1855700000
C               5.3965700000     -4.2086800000     10.5871800000
C              -2.2694000000     -0.7713100000      2.1889500000
C              -3.2783000000     -0.9931200000      3.1788400000
N              -4.1549900000     -1.2058900000      3.9214600000
O               2.0214800000      0.0330900000      4.4090000000
H               3.4759200000     -0.2089600000     -0.5621000000
C               5.0168700000      2.6613600000     25.8215200000
N               5.5258100000      2.7738700000     26.8667600000
C              -2.8058000000     -0.9492400000      0.8749200000
N              -3.3274000000     -1.1018600000     -0.1590600000
H               3.5225200000     -0.0120800000      1.9172700000
H              -0.7951100000     -0.6420300000     -0.4974100000
H              -2.0757800000     -0.0117800000      4.8748500000
H              -2.6599900000      0.3839900000      7.0870700000
H               3.6710100000      1.1078500000     13.1049200000
H              -1.3535900000      1.1707100000     13.4720700000
H               4.9654300000      1.7952100000     19.5137700000
H               4.3658100000      1.9943800000     21.7562400000
H               3.1751800000      1.6670200000     27.1333900000
C               1.1666500000      0.9520100000     28.8173500000
H              -1.1242900000      0.9427800000     24.7113100000
H               2.1640200000      3.4679600000     11.3951600000
H               6.2707500000     -1.6239900000     10.9411000000
H               4.9849800000      0.4474400000     10.8774500000
H               2.6809600000     -3.8788700000     10.2245400000
H               1.3879000000     -1.8114400000     10.1800700000
H               3.2150500000      5.4205500000     10.3877800000
H               4.9739100000      2.9201800000      7.3646400000
H               3.9433900000      0.9604600000      8.3835000000
H              -2.6584900000      0.8958600000     15.7592400000
H              -3.8959200000     -1.1685500000     16.1512300000
H               0.9756100000     -1.0566300000     16.9866800000
H              -0.2686500000     -3.1125100000     17.3941000000
H               0.2360600000      3.8346400000     14.7164500000
H              -0.8221100000      5.9551500000     15.2843200000
H              -2.7843700000      4.0861300000     18.6221700000
H              -1.7331800000      1.9611700000     18.0535000000
H               5.0182000000      5.4230100000      7.1106100000
H               4.2882600000      6.4579500000      8.3451000000
H               5.8562100000      5.7055200000      8.6369000000
H               4.7688400000     -5.0820600000     10.7756400000
H               5.8890700000     -4.3584300000      9.6200300000
H               6.1781000000     -4.1830500000     11.3507400000
H              -2.7508000000      6.6137700000     18.4039700000
H              -1.9894700000      7.3665500000     16.9975400000
H              -3.5594300000      6.5785500000     16.8367700000
H              -3.9296500000     -3.5915400000     16.5884700000
H              -2.4058000000     -4.4711200000     16.7577400000
H              -3.1430700000     -3.7065600000     18.1644700000
C               1.3258200000     -0.5530200000     -2.1995800000
H               2.0219900000      1.4675600000     29.2565900000
H               0.2601800000      1.3119100000     29.3091900000
H               1.2662500000     -0.1138300000     29.0499400000
H               0.3174700000     -0.6813100000     -2.5946800000
H               1.7583300000      0.3411100000     -2.6584900000
H               1.9269800000     -1.4079200000     -2.5240500000
                                                
  eps=4.46238                                      
  epsinf=4.46238                                   
  RSolv=7.54                                       
 
