%mem=800MW
%nprocshared=64
#p wB97XD/6-31g** opt td=(triplet,nstates=2,root=1) pop=esp scf=(MaxCycle=20000) nosymm iop(3/107=0001000000,3/108=0001000000) SCRF=(PCM,Solvent=Generic,Read)

IT-4F

0  1
C          0.29165        0.17270       -0.01800
C          0.22516        0.11569        1.38399
C          1.43177        0.18838        2.09521
C          2.65632        0.29802        1.43161
C          2.72744        0.34797        0.03101
C          1.51696        0.28455       -0.67805
C         -1.14344        0.10324        2.11533
C         -1.03937       -0.31549        3.58823
C         -1.35493        0.77791        4.43522
C         -1.66265        1.93527        3.68939
C         -1.58663        1.58085        2.29239
S         -1.30364        0.38960        6.14665
C         -0.86083       -1.26788        5.72983
C         -0.76573       -1.46711        4.31863
C         -0.59688       -2.39643        6.48131
C         -0.28216       -3.53386        5.67887
S         -0.32057       -3.11934        3.94990
C         -2.00439        3.25491        4.09957
C         -2.26993        4.18576        3.12653
C         -2.21127        3.82670        1.73006
C         -1.86341        2.50879        1.31972
C         -2.62769        5.68651        3.30202
C         -2.76974        6.09437        1.82909
C         -2.53981        4.97855        0.98424
S         -2.72464        5.33073       -0.72567
C         -3.11286        7.00221       -0.31194
C         -3.09097        7.23312        1.09742
S         -3.46970        8.90264        1.46199
C         -3.65242        9.27754       -0.26694
C         -3.42353        8.11773       -1.06532
C         -0.02309       -4.78396        6.28861
C          0.30395       -6.05892        5.82241
C          0.58812       -6.43219        4.41000
C          0.99477       -7.86042        4.41877
C          0.94489       -8.34944        5.73617
C          0.49045       -7.25199        6.64189
C          1.37348       -8.64363        3.33314
C          1.71520       -9.96773        3.58627
C          1.66953      -10.47466        4.89414
C          1.28744       -9.68586        5.97804
O          0.51845       -5.71991        3.41612
C          0.26885       -7.40685        8.01212
C          0.52079       -8.61734        8.73370
N          0.70471       -9.56116        9.39557
C         -2.22275       -0.78411        1.44061
C         -1.87696       -1.97678        0.78561
C         -2.85711       -2.82245        0.26161
C         -4.22304       -2.51841        0.37637
C         -4.56554       -1.33103        1.04240
C         -3.58774       -0.48202        1.56646
C         -4.00189        5.90569        3.99161
C         -4.31446        7.12366        4.61405
C         -5.57826        7.34773        5.16770
C         -6.58294        6.37030        5.11611
C         -6.27183        5.15813        4.47747
C         -5.01093        4.93106        3.92353
C         -1.43804        6.37671        4.01883
C         -1.35692        6.40324        5.42097
C         -0.24604        6.94692        6.06890
C          0.83314        7.48294        5.34738
C          0.75559        7.44026        3.94703
C         -0.35379        6.89503        3.29537
C         -3.95739       10.51502       -0.88123
C         -4.23546       11.80259       -0.41948
C         -4.50846       12.96940       -1.25261
C         -4.94201       14.07372       -0.34617
C         -4.84958       13.63039        0.98513
C         -4.39008       12.21775        1.00158
C         -5.16350       14.43605        2.07494
C         -5.59348       15.73226        1.81174
C         -5.70020       16.18961        0.48918
C         -5.37801       15.38030       -0.59911
C         -7.94784        6.59824        5.74125
C          2.02002        8.11235        6.05494
C         -4.35288       13.10055       -2.63390
C         -4.68350       14.28325       -3.36960
N         -4.93427       15.20474       -4.04085
O         -4.19419       11.54577        2.00646
C         -5.28262       -3.43140       -0.21470
C          4.06204        0.44173       -0.68718
C         -3.81020       12.09845       -3.50119
N         -3.36614       11.34466       -4.27438
C         -0.25434       -6.39995        8.88552
N         -0.68386       -5.64397        9.66488
F         -5.91471       16.56064        2.82012
F         -6.12626       17.44582        0.27076
H         -5.08022       14.07859        3.09252
H         -5.48742       15.80007       -1.58595
H         -3.98670       10.40110       -1.95588
H         -3.48732        8.14045       -2.14356
H         -2.05166        3.50486        5.14964
H         -1.81870        2.25861        0.26958
H         -0.62942       -2.44560        7.56006
H         -0.10367       -4.69781        7.36285
H          1.27607      -10.14560        6.95283
F          2.00461      -11.75982        5.10233
F          2.09294      -10.77729        2.58209
H          1.40574       -8.24805        2.32684
H         -4.82361        3.98287        3.43591
H         -0.22545        6.95354        7.15423
H         -2.16549        6.00704        6.02228
H          1.56973        7.83681        3.34878
H         -0.35849        6.87590        2.21281
H         -7.02269        4.37726        4.40902
H         -5.77606        8.30242        5.64419
H         -3.57125        7.90708        4.68289
H         -0.61439        0.12340       -0.60897
H          1.52441        0.32323       -1.76283
H          1.43198        0.16662        3.17764
H          3.56721        0.34749        2.01978
H         -3.90361        0.41713        2.08054
H         -5.61031       -1.06178        1.16124
H         -2.54692       -3.73421       -0.23870
H         -0.83703       -2.25458        0.67443
H         -8.13655        7.65916        5.91705
H         -8.74702        6.21433        5.10169
H         -8.02568        6.08375        6.70544
H          2.93385        8.02480        5.46283
H          1.84399        9.17946        6.23109
H          2.20039        7.64579        7.02622
H         -5.01692       -4.48404       -0.08931
H         -6.25621       -3.27188        0.25354
H         -5.39935       -3.24919       -1.28886
H          3.95596        0.90268       -1.67169
H          4.78238        1.03036       -0.11400
H          4.49587       -0.55378       -0.83415
                                                
  eps=4.73931                                      
  epsinf=4.73931                                   
  RSolv=8.25                                       
 
