%mem=1000MW
%nprocshared=40
#p wB97XD/6-31g** nosymm pop=esp opt td=(nstates=2,root=1) scf=(MaxCycle=20000) iop(3/107=0001100000,3/108=0001100000) SCRF=(PCM,Solvent=Generic,Read)

 IT-4Cl opt-TDdft

0 1
C         -0.10640       -0.27993       -0.21229
C         -0.07695       -0.14112        1.18298
C          1.18071       -0.07537        1.80526
C          2.35812       -0.12553        1.05637
C          2.33186       -0.24988       -0.34277
C          1.07401       -0.32945       -0.95877
C         -1.38297       -0.19094        2.01859
C         -2.63287        0.18606        1.21056
C         -3.49922       -0.93252        1.09105
C         -2.95824       -2.07148        1.72375
C         -1.69737       -1.68294        2.30753
S         -4.97807       -0.59673        0.20786
C         -4.44010        1.06970       -0.01295
C         -3.16840        1.31149        0.59869
C         -5.00674        2.15857       -0.64987
C         -4.18993        3.31651       -0.55795
S         -2.69607        2.97498        0.36068
C         -0.92833       -2.59680        2.98435
C         -1.41662       -3.92807        3.09575
C         -2.68305       -4.31423        2.52473
C         -3.44868       -3.40274        1.84055
C         -0.86107       -5.07573        3.70394
C         -1.69689       -6.20635        3.53650
C         -2.97492       -5.81758        2.77882
S          0.61193       -5.40130        4.59861
C          0.11267       -7.08620        4.75217
C         -1.14837       -7.33923        4.13367
S         -1.60026       -9.02047        4.30413
C         -0.10712       -9.36862        5.20526
C          0.68928       -8.19540        5.34190
C         -4.39369        4.64494       -0.98742
C         -5.30824        5.19694       -1.89540
C         -6.02758        4.48069       -2.99348
C         -6.52767        5.54288       -3.91518
C         -6.21085        6.80839       -3.39268
C         -5.51695        6.62218       -2.08675
C         -7.19429        5.38112       -5.11996
C         -7.55504        6.52622       -5.84342
C         -7.24113        7.80244       -5.33489
C         -6.57346        7.95012       -4.10817
Cl        -8.38494        6.32316       -7.37005
Cl        -7.66674        9.25696       -6.21009
O         -6.16219        3.27713       -3.16712
C         -5.22156        7.64032       -1.17799
C         -5.39352        9.03385       -1.45266
N         -5.49794       10.18545       -1.61271
C         -1.36064        0.68673        3.29875
C         -0.71699        1.93550        3.30707
C         -0.76574        2.76449        4.42916
C         -1.46479        2.38735        5.58792
C         -2.11803        1.14592        5.57094
C         -2.07139        0.31338        4.44906
C         -3.11629       -6.51780        1.40331
C         -4.35747       -6.58447        0.74999
C         -4.47104       -7.13724       -0.52745
C         -3.35152       -7.64258       -1.20820
C         -2.11050       -7.56044       -0.55809
C         -1.99300       -7.00606        0.71912
C         -4.17664       -6.04360        3.73801
C         -4.83327       -7.28466        3.79488
C         -5.85363       -7.51905        4.71812
C         -6.26009       -6.52934        5.62845
C         -5.59610       -5.29493        5.57526
C         -4.57308       -5.05717        4.65287
C          0.32322      -10.59042        5.77434
C         -0.18006      -11.89128        5.81223
C         -1.37235      -12.40084        5.08307
C         -1.37086      -13.87939        5.25243
C         -0.28470      -14.25386        6.06127
C          0.43785      -13.02220        6.49736
C         -0.06823      -15.60942        6.31703
C         -0.94706      -16.55688        5.76828
C         -2.04169      -16.16130        4.97330
C         -2.25404      -14.80165        4.71189
C         -3.48397       -8.27843       -2.58095
C         -7.38315       -6.78926        6.61691
O         -2.19814      -11.75813        4.44758
C          1.45774      -13.00051        7.44892
C          2.01510      -14.17204        8.05420
N          2.52364      -15.07731        8.58729
Cl        -0.63511      -18.24583        6.10393
Cl        -3.15259      -17.32737        4.29116
C         -1.48945        3.28382        6.81323
C          3.61516       -0.26925       -1.15428
C          2.04725      -11.81260        7.99007
N          2.56604      -10.89569        8.49287
C         -4.77803        7.41609        0.16570
N         -4.44319        7.31767        1.27962
H         -7.42742        4.39502       -5.49768
H         -6.35239        8.94694       -3.76288
H         -3.69549        5.35419       -0.55969
H         -5.95671        2.16214       -1.15567
H          0.02066       -2.32332        3.42266
H         -4.39607       -3.67686        1.39907
H          1.63658       -8.19878        5.86151
H          1.27353      -10.45655        6.27248
H          0.75531      -15.96451        6.91429
H         -3.08537      -14.48050        4.09935
H         -2.59921       -0.63099        4.48393
H          3.31017       -0.06469        1.57418
H          1.25364        0.02345        2.88106
H          1.00520       -0.43397       -2.03679
H         -1.05201       -0.35809       -0.73382
H         -2.67466        0.81684        6.44263
H         -0.25197        3.71987        4.39602
H         -0.16114        2.26760        2.43989
H         -5.25035       -6.21125        1.23552
H         -5.44935       -7.17556       -0.99587
H         -1.01166       -6.95395        1.17381
H         -1.21769       -7.93337       -1.04983
H         -4.08608       -4.09075        4.66163
H         -5.87405       -4.50289        6.26326
H         -6.33667       -8.49090        4.72687
H         -4.56073       -8.07766        3.11094
H         -1.68122        4.32511        6.54069
H         -2.25846        2.97388        7.52332
H         -0.52615        3.25590        7.33417
H          3.46696       -0.73814       -2.12927
H          3.97894        0.74940       -1.32952
H          4.40843       -0.81269       -0.63458
H         -7.25689       -7.75518        7.11373
H         -7.42828       -6.01696        7.38701
H         -8.35341       -6.80967        6.10888
H         -4.31299       -7.84502       -3.14497
H         -2.57162       -8.15396       -3.16864
H         -3.67305       -9.35407       -2.49164

  eps=4.88617
  epsinf=4.88617
  RSolv=8.36
 
