%mem=1000MW
%nprocshared=40
#p wB97XD/6-31g** nosymm pop=esp opt td=(triplet,nstates=2,root=1) scf=(MaxCycle=20000) iop(3/107=0001100000,3/108=0001100000) SCRF=(PCM,Solvent=Generic,Read)

 IT-4Cl opt-TDdft

0 1
C         -0.12786       -0.28842       -0.21748
C         -0.09263       -0.14764        1.17757
C          1.16721       -0.07992        1.79528
C          2.34157       -0.12958        1.04179
C          2.30980       -0.25536       -0.35724
C          1.04967       -0.33711       -0.96840
C         -1.39580       -0.19642        2.01776
C         -2.64856        0.17828        1.21589
C         -3.51021       -0.93075        1.09585
C         -2.96448       -2.07800        1.72673
C         -1.70628       -1.68776        2.30615
S         -4.98911       -0.59830        0.22242
C         -4.45806        1.06809        0.00417
C         -3.19144        1.31302        0.60640
C         -5.03415        2.16441       -0.63044
C         -4.22379        3.31411       -0.53808
S         -2.72539        2.97391        0.37323
C         -0.93349       -2.60294        2.98161
C         -1.42130       -3.92984        3.09115
C         -2.68505       -4.31762        2.52302
C         -3.45397       -3.40427        1.83994
C         -0.86418       -5.08186        3.70202
C         -1.69688       -6.20643        3.53329
C         -2.97415       -5.82009        2.77586
S          0.60520       -5.40355        4.59569
C          0.10869       -7.08739        4.75024
C         -1.14661       -7.34411        4.13350
S         -1.59549       -9.02335        4.30456
C         -0.10253       -9.36747        5.20721
C          0.68916       -8.19952        5.34460
C         -4.43149        4.65369       -0.96031
C         -5.32672        5.20826       -1.87530
C         -6.05508        4.49303       -2.96789
C         -6.52308        5.55321       -3.90752
C         -6.18732        6.81959       -3.39503
C         -5.51181        6.63862       -2.08309
C         -7.18190        5.38964       -5.11590
C         -7.51504        6.53289       -5.85655
C         -7.18322        7.80894       -5.35893
C         -6.52456        7.95955       -4.12788
Cl        -8.33344        6.32680       -7.38907
Cl        -7.57650        9.26063       -6.25442
O         -6.22030        3.29044       -3.12411
C         -5.20824        7.66208       -1.18090
C         -5.34809        9.05483       -1.47325
N         -5.42694       10.20682       -1.64832
C         -1.37129        0.68039        3.29830
C         -0.72365        1.92703        3.30755
C         -0.77066        2.75511        4.43028
C         -1.47164        2.37921        5.58842
C         -2.12926        1.14000        5.57010
C         -2.08495        0.30854        4.44758
C         -3.11367       -6.51663        1.39834
C         -4.35490       -6.58618        0.74534
C         -4.46631       -7.13628       -0.53330
C         -3.34475       -7.63560       -1.21539
C         -2.10382       -7.55019       -0.56542
C         -1.98817       -6.99829        0.71293
C         -4.17402       -6.04833        3.73666
C         -4.83568       -7.28698        3.78666
C         -5.85487       -7.52259        4.71070
C         -6.25491       -6.53690        5.62844
C         -5.58507       -5.30526        5.58249
C         -4.56278       -5.06631        4.65992
C          0.32993      -10.59401        5.78032
C         -0.17020      -11.89185        5.81853
C         -1.36452      -12.40147        5.09140
C         -1.36353      -13.87903        5.26190
C         -0.27550      -14.25242        6.07131
C          0.44927      -13.02500        6.50336
C         -0.06238      -15.60909        6.32983
C         -0.94350      -16.55579        5.78348
C         -2.03797      -16.16089        4.98801
C         -2.24837      -14.80066        4.72428
C         -3.47519       -8.26876       -2.58942
C         -7.37668       -6.79862        6.61763
O         -2.19073      -11.75800        4.45673
C          1.47707      -13.00213        7.44999
C          2.03848      -14.17222        8.05197
N          2.55075      -15.07793        8.58199
Cl        -0.63450      -18.24484        6.12294
Cl        -3.15113      -17.32653        4.30837
C         -1.49439        3.27504        6.81405
C          3.58990       -0.27362       -1.17358
C          2.06959      -11.81463        7.98567
N          2.59197      -10.89565        8.48249
C         -4.78862        7.44402        0.17049
N         -4.47013        7.34778        1.28999
H         -7.43106        4.40354       -5.48333
H         -6.28983        8.95633       -3.79156
H         -3.74556        5.36060       -0.50950
H         -5.98752        2.16610       -1.12999
H          0.01583       -2.32881        3.41835
H         -4.40166       -3.67899        1.39989
H          1.63580       -8.19882        5.86533
H          1.27840      -10.45636        6.28101
H          0.76038      -15.96439        6.92806
H         -3.08008      -14.47933        4.11228
H         -2.61730       -0.63340        4.48112
H          3.29555       -0.06690        1.55569
H          1.24423        0.02059        2.87063
H          0.97684       -0.44265       -2.04600
H         -1.07544       -0.36854       -0.73513
H         -2.68787        0.81231        6.44098
H         -0.25416        3.70899        4.39819
H         -0.16703        2.25848        2.44069
H         -5.24920       -6.21788        1.23199
H         -5.44447       -7.17754       -1.00166
H         -1.00688       -6.94329        1.16739
H         -1.20974       -7.91847       -1.05821
H         -4.07042       -4.10262        4.67573
H         -5.85754       -4.51680        6.27664
H         -6.34216       -8.49227        4.71426
H         -4.56797       -8.07691        3.09745
H         -1.68574        4.31651        6.54201
H         -2.26267        2.96528        7.52493
H         -0.53038        3.24625        7.33358
H          3.43881       -0.74371       -2.14751
H          3.95090        0.74559       -1.35116
H          4.38612       -0.81489       -0.65621
H         -7.24824       -7.76440        7.11417
H         -7.42272       -6.02645        7.38772
H         -8.34705       -6.82098        6.10999
H         -4.30330       -7.83416       -3.15383
H         -2.56187       -8.14364       -3.17536
H         -3.66478       -9.34443       -2.50194

  eps=4.88617
  epsinf=4.88617
  RSolv=8.36
 
