%mem=800MW
%nprocshared=64
#p wB97XD/6-31g** opt td=(triplet,nstates=3,root=2) pop=esp scf=(MaxCycle=20000) nosymm iop(3/107=0000600000,3/108=0000600000) SCRF=(PCM,Solvent=Generic,Read)

IEICO

0  1
C         12.33419       -0.79548        9.83859
C         12.69932        0.08685        8.81402
C         14.00569        0.01579        8.29085
C         14.94598       -0.90337        8.74464
C         14.57104       -1.78478        9.76655
C         13.27914       -1.72219       10.30373
C         14.16386        1.05203        7.23936
C         12.86455        1.77565        7.14485
C         11.94856        1.16104        8.09674
C         12.58480        2.86565        6.31822
C         13.30707        3.59668        5.34313
C         12.70139        4.68044        4.66266
C         13.52438        5.30004        3.72556
C         14.82708        4.72256        3.64270
S         14.96194        3.37258        4.77497
C         15.92291        5.10118        2.82364
C         17.20433        4.50886        2.79978
C         18.07059        5.12364        1.89077
C         17.48359        6.17978        1.20104
S         15.83542        6.44905        1.65879
C         18.41665        6.78371        0.27838
C         19.63342        6.05195        0.38314
C         19.51405        4.89988        1.41573
C         20.74294        6.42861       -0.35959
C         20.61617        7.53238       -1.22215
C         19.39212        8.24958       -1.34432
C         18.28851        7.88484       -0.58734
C         19.52338        9.42987       -2.34206
C         21.00441        9.28453       -2.72287
C         21.57051        8.18212       -2.09114
S         23.22788        7.93432       -2.52950
C         23.17461        9.36136       -3.59826
C         21.89341        9.95279       -3.56977
C         18.69061        9.24356       -3.63959
C         18.55683       10.31122       -4.54592
C         17.89567       10.14839       -5.76282
C         17.33752        8.91154       -6.13264
C         17.47436        7.84947       -5.22883
C         18.14033        8.00911       -4.00780
C         16.60449        8.74807       -7.45269
C         19.19909       10.74675       -1.59086
C         17.89124       11.25440       -1.55351
C         17.58254       12.40181       -0.81746
C         18.56439       13.08668       -0.08497
C         19.86995       12.56985       -0.11622
C         20.18131       11.42283       -0.84989
C         24.29521        9.80278       -4.34973
S         24.18299       11.22082       -5.39714
C         25.87184       11.07813       -5.88389
C         26.46522        9.95381       -5.26129
C         25.60884        9.24859       -4.41878
C         19.57865        3.48621        0.77599
C         19.37703        3.27879       -0.59512
C         19.34171        1.98802       -1.13434
C         19.50056        0.85325       -0.32655
C         19.69604        1.06398        1.04951
C         19.73235        2.34959        1.58990
C         20.57662        5.12080        2.52253
C         20.31578        5.94263        3.63003
C         21.29901        6.19299        4.59035
C         22.58555        5.64101        4.48184
C         22.84757        4.83104        3.36588
C         21.86564        4.57735        2.40444
C         26.63092       11.92933       -6.72311
C         26.35047       13.07300       -7.47418
C         25.00114       13.63969       -7.75806
C         25.18960       14.70044       -8.78219
C         26.56306       14.81960       -9.07519
C         27.32122       13.85751       -8.22237
C         26.97300       15.75773      -10.03034
C         26.00133       16.54898      -10.66111
C         24.64074       16.42298      -10.35385
C         24.22234       15.48689       -9.39930
O         25.88672        8.15154       -3.69305
C         27.21111        7.58929       -3.75199
O         23.93062       13.29798       -7.26795
C         28.71773       13.80424       -8.12900
C         29.44484       13.02406       -7.17449
N         30.11169       12.43514       -6.41730
C         18.22561       14.32285        0.73021
C         19.48033       -0.54943       -0.90859
C         23.65661        5.93103        5.51931
O         13.22519        6.34030        2.92821
C         11.91222        6.92705        3.00254
C         10.59819        1.46123        8.32028
C          9.77969        0.81482        9.29990
N          9.03956        0.34713       10.07306
O         15.18141        1.26242        6.58814
C         29.60857       14.57029       -8.94501
N         30.40387       15.14949       -9.57452
C          9.83398        2.43251        7.59903
N          9.13352        3.19642        7.05952
H         15.27942       -2.51382       10.14286
H         15.93902       -0.93140        8.31318
H         12.99533       -2.40534       11.09629
H         11.35310       -0.78706       10.28628
H         11.68427        4.97631        4.86895
H         11.90879        7.72215        2.26168
H         11.73313        7.34643        3.99448
H         11.14561        6.19043        2.75479
H         17.47121        3.67535        3.43105
H         19.23818        4.12022       -1.26145
H         19.18397        1.87200       -2.20202
H         19.81881        0.21389        1.71351
H         19.88549        2.46264        2.65606
H         19.33973        6.39445        3.75595
H         21.05321        6.82644        5.43704
H         22.11190        3.93694        1.56642
H         23.82853        4.38289        3.24180
H         21.20186       11.06050       -0.84003
H         20.66096       13.06837        0.43550
H         17.10104       10.76439       -2.10887
H         16.56016       12.76705       -0.82210
H         18.96872       11.28336       -4.30414
H         17.81650       10.99766       -6.43443
H         18.22661        7.15382       -3.35050
H         17.05883        6.87655       -5.47202
H         17.35687        8.42890       -0.65507
H         21.68116        5.89803       -0.27708
H         21.64678       10.83314       -4.14278
H         18.05778       14.06307        1.78154
H         17.31899       14.80864        0.36310
H         19.03593       15.05561        0.70162
H         15.63504        9.25760       -7.42721
H         16.41999        7.69672       -7.68202
H         17.17549        9.17889       -8.28002
H         27.49964        9.69727       -5.43187
H         26.31749       17.27324      -11.40323
H         28.00867       15.88988      -10.30132
H         23.17558       15.37127       -9.14641
H         23.91325       17.04990      -10.85652
H         27.19164        6.73151       -3.08485
H         27.95264        8.31047       -3.40278
H         27.44514        7.26227       -4.76708
H         19.03092       -0.56500       -1.90360
H         18.91297       -1.23420       -0.27254
H         20.49541       -0.95246       -0.99724
H         23.22751        6.02553        6.51986
H         24.17048        6.87265        5.29477
H         24.41237        5.14321        5.54791
H         11.59175        3.27713        6.42645
H         27.65421       11.58457       -6.78343
                                                  
  eps=4.9548                                       
  epsinf=4.9548                                    
  RSolv=8.20                                       
                                                   
 
