%mem=1000MW
%nprocshared=40
#p wB97XD/6-31g** nosymm pop=esp opt td=(nstates=2,root=1) scf=(MaxCycle=20000) iop(3/107=0016000000,3/108=0016000000) SCRF=(PCM,Solvent=Generic,Read)

 Y6 opt-TDdft

0 1
C          0.29657        1.02764        0.24312
C          0.33471        0.68583        1.60088
C          1.52586        0.86418        2.32858
C          2.69371        1.35122        1.74780
C          2.64710        1.68161        0.39970
C          1.45797        1.52755       -0.33548
C         -0.69145        0.10618        2.50215
C         -0.14061        0.14271        3.86744
C          1.30765        0.48255        3.74701
C         -0.89029        0.07859        5.02125
C         -0.58094        0.09754        6.41645
S          1.03554       -0.08141        7.12371
C          0.35952       -0.09827        8.71647
C         -1.03771        0.06728        8.69473
C         -1.59110        0.18069        7.40729
S         -1.77046        0.10669       10.30773
C         -0.18169       -0.09582       11.00307
C          0.84650       -0.17967       10.04025
N          2.06116       -0.36083       10.66514
C          1.82000       -0.36475       12.03958
C          0.40590       -0.24552       12.26329
C          2.70307       -0.42476       13.14404
C          2.17808       -0.65721       14.46821
C          0.75589       -0.65051       14.69427
C         -0.13420       -0.37214       13.59129
N          4.09051       -0.31745       13.21930
C          4.44689       -0.54487       14.53330
C          3.27652       -0.76279       15.31471
C          5.61958       -0.57643       15.29243
C          5.34629       -0.82438       16.65835
S          3.62024       -1.02348       17.00663
C          6.47933       -0.87150       17.49419
C          7.64507       -0.63632       16.75427
S          7.33451       -0.41371       15.03231
N         -1.41537       -0.32184       13.93485
S         -1.48000       -0.61863       15.56185
N          0.13686       -0.81455       15.85644
C          9.03779       -0.68384       17.22308
C          9.77316        0.39276       17.65886
C         11.13940        0.46147       18.12532
C         11.42057        1.86738       18.47425
C         10.27069        2.65871       18.24492
C          9.19250        1.78447       17.73173
C         10.22676        4.02673       18.48062
C         11.37968        4.63783       18.96599
C         12.52981        3.87421       19.19809
C         12.57477        2.50032       18.96183
F         13.63104        4.49367       19.66569
F         11.40031        5.96591       19.21504
C         12.06476       -0.61723       18.23906
C         13.39072       -0.47881       18.72887
N         14.49239       -0.42616       19.12444
O          8.05651        2.12433       17.42951
C          6.45326       -1.11248       18.98136
C          4.97212        0.40245       12.28451
C          3.22621       -0.92938        9.96880
C         -3.06633        0.36306        7.14062
O          2.15464        0.48310        4.62845
C         -1.87817       -0.47475        2.09650
C         -2.35221       -0.45877        0.74407
N         -2.79638       -0.47300       -0.33331
F          3.73328        2.16023       -0.22028
F          1.45421        1.87661       -1.62862
C         11.76916       -1.95940       17.88220
N         11.58091       -3.08235       17.60300
C         -2.73583       -1.23272        2.95991
N         -3.46220       -1.88762        3.59379
H         13.49870        1.98119       19.16312
H          9.33153        4.60623       18.29688
H          9.48470       -1.66930       17.18849
H          7.46382       -1.18625       19.37948
H          5.92371       -2.03915       19.21711
H          5.94511       -0.29160       19.49473
H          5.57326        1.11252       12.84927
H          4.36679        0.97060       11.58512
H          5.62864       -0.28124       11.74947
H          2.87803       -1.65014        9.23080
H          3.84448       -1.46750       10.67970
H          3.80811       -0.15377        9.47339
H         -3.24993        1.13470        6.39189
H         -3.58818        0.66414        8.04843
H         -3.51907       -0.56809        6.79319
H         -1.95964        0.02464        4.86131
H          3.60724        1.47476        2.31339
H         -0.58398        0.94147       -0.37393

  eps=3.36
  epsinf=3.36
  RSolv=7.28
 
