%mem=1000MW
%nprocshared=40
#p wB97XD/6-31g** nosymm pop=esp opt td=(nstates=2,root=1) scf=(MaxCycle=20000) iop(3/107=0001100000,3/108=0001100000) SCRF=(PCM,Solvent=Generic,Read)

 IT-4Cl opt-TDdft

0 1
C         -0.02655       -0.29758       -0.21783
C         -0.01104       -0.15997        1.17780
C          1.24087       -0.11038        1.81331
C          2.42578       -0.17582        1.07744
C          2.41340       -0.30035       -0.32180
C          1.16128       -0.36307       -0.95127
C         -1.32668       -0.19181        2.00053
C         -2.56521        0.19148        1.17702
C         -3.43019       -0.89629        1.04974
C         -2.89316       -2.06611        1.70670
C         -1.65675       -1.67872        2.29423
S         -4.89501       -0.56143        0.16198
C         -4.35073        1.09942       -0.06328
C         -3.09159        1.33433        0.55095
C         -4.90870        2.19672       -0.71180
C         -4.08290        3.34225       -0.62023
S         -2.60150        2.98855        0.31363
C         -0.89390       -2.60256        2.99183
C         -1.38863       -3.91523        3.09722
C         -2.62764       -4.30182        2.51323
C         -3.38713       -3.37858        1.81013
C         -0.83922       -5.08781        3.73227
C         -1.66969       -6.19784        3.54528
C         -2.92505       -5.80554        2.75157
S          0.60293       -5.40841        4.66343
C          0.09773       -7.09094        4.81419
C         -1.14140       -7.34015        4.16609
S         -1.60718       -9.01895        4.32839
C         -0.14156       -9.37404        5.26959
C          0.65712       -8.20274        5.42489
C         -4.27037        4.67380       -1.05671
C         -5.16608        5.22457       -1.98383
C         -5.85677        4.49780       -3.10202
C         -6.35100        5.55431       -4.03024
C         -6.06070        6.82242       -3.49630
C         -5.38306        6.64369       -2.18352
C         -6.99851        5.38726       -5.24467
C         -7.36787        6.52943       -5.96844
C         -7.08284        7.80786       -5.44806
C         -6.43435        7.96124       -4.21182
Cl        -8.17227        6.32019       -7.50792
Cl        -7.52245        9.25932       -6.32090
O         -5.97112        3.29333       -3.27309
C         -5.09851        7.66818       -1.26897
C         -5.25066        9.06008       -1.55501
N         -5.33923       10.21186       -1.72639
C         -1.30397        0.69240        3.27625
C         -0.65173        1.93666        3.27975
C         -0.69901        2.77331        4.39637
C         -1.40484        2.40827        5.55473
C         -2.06589        1.17095        5.54303
C         -2.02031        0.33068        4.42675
C         -3.02125       -6.49724        1.36660
C         -4.23908       -6.55085        0.66938
C         -4.31309       -7.09880       -0.61311
C         -3.17507       -7.61230       -1.25575
C         -1.95693       -7.54236       -0.56234
C         -1.87917       -6.99306        0.72013
C         -4.15899       -6.04252        3.66532
C         -4.81560       -7.28454        3.68320
C         -5.87009       -7.53113        4.56375
C         -6.31217       -6.55274        5.46966
C         -5.64798       -5.31735        5.45630
C         -4.59123       -5.06709        4.57585
C          0.26814      -10.59713        5.85240
C         -0.24546      -11.89815        5.87999
C         -1.42219      -12.40206        5.10780
C         -1.44324      -13.87710        5.28641
C         -0.39089      -14.25384        6.13995
C          0.33433      -13.02932        6.58265
C         -0.20913      -15.60919        6.42475
C         -1.08227      -16.55096        5.85606
C         -2.13780      -16.15282        5.01182
C         -2.31957      -14.79322        4.72583
C         -3.26449       -8.24531       -2.63322
C         -7.47123       -6.82683        6.41165
O         -2.21570      -11.74976        4.44424
C          1.34419      -13.00906        7.55935
C          1.89931      -14.18132        8.15931
N          2.40756      -15.09080        8.68742
Cl        -0.81200      -18.23890        6.23177
Cl        -3.23748      -17.31269        4.29962
C         -1.42845        3.31279        6.77426
C          3.70535       -0.33818       -1.11889
C          1.91318      -11.82513        8.12400
N          2.41556      -10.91013        8.64858
C         -4.68888        7.44514        0.08384
N         -4.38010        7.34594        1.20569
H         -7.21091        4.39925       -5.62952
H         -6.23705        8.96003       -3.85804
H         -3.57845        5.38126       -0.61620
H         -5.85838        2.20500       -1.21805
H          0.04992       -2.32894        3.44110
H         -4.32718       -3.65352        1.35366
H          1.59044       -8.20854        5.96902
H          1.20539      -10.46889        6.37554
H          0.58169      -15.96878        7.06223
H         -3.12297      -14.46810        4.07899
H         -2.55400       -0.61028        4.46552
H          3.37283       -0.12765        1.60573
H          1.30378       -0.01235        2.88985
H          1.10287       -0.46663       -2.03007
H         -0.96747       -0.36245       -0.74941
H         -2.62755        0.85083        6.41490
H         -0.17880        3.72511        4.35904
H         -0.09039        2.25960        2.41257
H         -5.14517       -6.17249        1.12557
H         -5.27521       -7.12708       -1.11476
H         -0.91376       -6.95159        1.20849
H         -1.05089       -7.92196       -1.02392
H         -4.10529       -4.10071        4.61477
H         -5.95230       -4.53395        6.14313
H         -6.35192       -8.50340        4.54203
H         -4.51595       -8.06919        3.00096
H         -1.61984        4.35240        6.49490
H         -2.19749        3.00805        7.48657
H         -0.46509        3.28804        7.29523
H          3.55959       -0.79779       -2.09867
H          4.09113        0.67425       -1.28280
H          4.48183       -0.90056       -0.59392
H         -7.35746       -7.79530        6.90658
H         -7.55144       -6.06034        7.18484
H         -8.42126       -6.84994        5.86680
H         -4.07456       -7.81034       -3.22296
H         -2.33363       -8.12057       -3.19123
H         -3.45692       -9.32102       -2.55206

  eps=4.88617
  epsinf=4.88617
  RSolv=8.36
 
