%mem=1000MW
%nprocshared=40
#p wB97XD/6-31g** opt td=(nstates=2,root=1) scf=(MaxCycle=20000) iop(3/107=0016000000,3/108=0016000000) nosymm pop=esp SCRF=(PCM,Solvent=Generic,Read)

 Y6

0 1
C        -10.76632       -8.46852        0.60542
C        -10.90518       -7.22188       -0.00191
C         -9.79707       -6.36734       -0.01148
C         -8.59447       -6.79618        0.58027
C         -8.44976       -8.04319        1.17825
C         -9.55919       -8.88184        1.18832
C         -9.59111       -5.01117       -0.58414
C         -7.57252       -5.72885        0.43803
C         -8.25812       -4.57347       -0.22002
F        -11.81554       -9.30481        0.63606
F         -9.48980      -10.09678        1.75699
O         -6.40987       -5.79691        0.81142
C        -10.50791       -4.33757       -1.40522
C        -10.19175       -3.17983       -2.17989
C        -11.84910       -4.77470       -1.62473
N        -12.95981       -5.06991       -1.83160
N        -10.00030       -2.25562       -2.86745
H        -11.86215       -6.97140       -0.43178
H         -7.51586       -8.35957        1.62308
C         -7.78394       -3.25905       -0.30073
C         -6.52474       -2.65104       -0.09515
H         -8.53730       -2.52854       -0.56524
S         -4.97103       -3.49296        0.10274
C         -4.11684       -1.97694        0.08468
C         -6.35266       -1.22618       -0.12627
C         -5.00269       -0.88222       -0.02613
C         -7.48275       -0.23581       -0.24992
H         -7.95603       -0.29550       -1.23230
H         -7.12310        0.78418       -0.11914
H         -8.25031       -0.41260        0.50729
S         -4.17096        0.68560       -0.03596
C         -2.64411       -0.15057        0.11189
C         -2.77762       -1.55122        0.16203
C         -1.27376        0.15126        0.22043
C         -0.59288       -1.10100        0.28646
N         -1.52704       -2.13316        0.28993
C         -0.54372        1.38090        0.36185
C          0.88502        1.33582        0.59884
C          1.56821        0.07253        0.54894
C          0.83868       -1.13037        0.30794
C         -1.34916       -3.48098        0.85169
H         -2.11946       -3.65607        1.60147
H         -0.38783       -3.54151        1.35204
H         -1.41675       -4.24621        0.07977
N         -1.04888        2.60987        0.36147
N          1.43637        2.53141        0.77833
S          0.21444        3.64054        0.64869
C          2.92776       -0.28954        0.57609
C          3.00686       -1.66932        0.30666
N          1.73280       -2.18128        0.12592
C          1.48862       -3.43202       -0.60727
H          2.24838       -3.54176       -1.37966
H          0.52468       -3.37757       -1.10359
H          1.52153       -4.29510        0.05628
C          4.33227       -2.13993        0.24629
C          5.26105       -1.10490        0.49223
S          4.48899        0.46637        0.78454
S          5.12593       -3.67270        0.02084
C          6.72037       -2.90164        0.18612
C          6.60077       -1.49960        0.47168
C          7.76668       -0.57291        0.70677
H          8.30251       -0.37013       -0.22340
H          8.47586       -0.99350        1.42284
H          7.42790        0.38210        1.10760
C          7.97432       -3.52098       -0.01865
C          8.38996       -4.84298       -0.21712
H          8.77904       -2.79754       -0.00480
C          7.58408       -6.07862        0.03047
C          9.74446       -5.26355       -0.51670
C          8.53907       -7.21437        0.00800
C          9.82550       -6.73115       -0.29497
C          8.27130       -8.56033        0.23129
C          9.33948       -9.44783        0.15849
C         10.62998       -8.98151       -0.13373
C         10.89274       -7.63318       -0.36896
C         10.78637       -4.46888       -1.01900
C         10.61554       -3.13933       -1.51196
C         12.13042       -4.92522       -1.17188
H          7.27395       -8.91605        0.45265
H         11.90889       -7.34641       -0.58951
O          6.38058       -6.16025        0.23311
F          9.14941      -10.76097        0.36795
F         11.63779       -9.86625       -0.18868
N         10.54776       -2.06521       -1.96494
N         13.24912       -5.23260       -1.30513
                                                   
  eps=3.36                                       
  epsinf=3.36                                    
  RSolv=7.28
 
