%mem=1000MW
%nprocshared=40
#p wB97XD/6-31g** opt td=(triplet,nstates=3,root=2) scf=(MaxCycle=20000) iop(3/107=0016000000,3/108=0016000000) nosymm pop=esp SCRF=(PCM,Solvent=Generic,Read)

 Y6

0 1
C        -10.76639       -8.46855        0.60533
C        -10.90521       -7.22188       -0.00194
C         -9.79708       -6.36737       -0.01146
C         -8.59450       -6.79626        0.58029
C         -8.44982       -8.04330        1.17822
C         -9.55928       -8.88192        1.18823
C         -9.59107       -5.01119       -0.58408
C         -7.57250       -5.72896        0.43808
C         -8.25806       -4.57354       -0.21994
F        -11.81562       -9.30482        0.63590
F         -9.48993      -10.09689        1.75685
O         -6.40986       -5.79709        0.81151
C        -10.50786       -4.33754       -1.40512
C        -10.19169       -3.17978       -2.17975
C        -11.84907       -4.77463       -1.62460
N        -12.95979       -5.06978       -1.83150
N        -10.00026       -2.25554       -2.86728
H        -11.86216       -6.97136       -0.43183
H         -7.51594       -8.35972        1.62305
C         -7.78386       -3.25914       -0.30060
C         -6.52466       -2.65111       -0.09502
H         -8.53722       -2.52862       -0.56507
S         -4.97092       -3.49302        0.10271
C         -4.11678       -1.97697        0.08468
C         -6.35261       -1.22626       -0.12608
C         -5.00265       -0.88227       -0.02601
C         -7.48274       -0.23592       -0.24960
H         -7.95614       -0.29563       -1.23192
H         -7.12310        0.78409       -0.11889
H         -8.25020       -0.41270        0.50770
S         -4.17098        0.68557       -0.03579
C         -2.64409       -0.15057        0.11192
C         -2.77756       -1.55123        0.16199
C         -1.27375        0.15128        0.22041
C         -0.59284       -1.10097        0.28634
N         -1.52697       -2.13316        0.28978
C         -0.54372        1.38093        0.36186
C          0.88503        1.33587        0.59875
C          1.56823        0.07259        0.54877
C          0.83871       -1.13031        0.30775
C         -1.34902       -3.48103        0.85140
H         -2.11934       -3.65624        1.60114
H         -0.38771       -3.54155        1.35176
H         -1.41656       -4.24619        0.07941
N         -1.04892        2.60989        0.36158
N          1.43639        2.53145        0.77827
S          0.21442        3.64055        0.64875
C          2.92778       -0.28947        0.57591
C          3.00689       -1.66925        0.30647
N          1.73283       -2.18121        0.12569
C          1.48866       -3.43189       -0.60764
H          2.24841       -3.54155       -1.38005
H          0.52471       -3.37740       -1.10393
H          1.52159       -4.29501        0.05584
C          4.33230       -2.13986        0.24612
C          5.26107       -1.10483        0.49210
S          4.48901        0.46644        0.78436
S          5.12596       -3.67261        0.02062
C          6.72038       -2.90156        0.18603
C          6.60079       -1.49954        0.47162
C          7.76670       -0.57287        0.70681
H          8.30260       -0.37009       -0.22332
H          8.47582       -0.99349        1.42291
H          7.42790        0.38214        1.10763
C          7.97434       -3.52092       -0.01868
C          8.38993       -4.84293       -0.21713
H          8.77908       -2.79752       -0.00474
C          7.58399       -6.07854        0.03041
C          9.74445       -5.26355       -0.51661
C          8.53895       -7.21431        0.00805
C          9.82542       -6.73115       -0.29486
C          8.27112       -8.56026        0.23135
C          9.33927       -9.44780        0.15862
C         10.62981       -8.98153       -0.13354
C         10.89263       -7.63321       -0.36879
C         10.78639       -4.46893       -1.01887
C         10.61562       -3.13940       -1.51191
C         12.13045       -4.92530       -1.17162
H          7.27375       -8.91594        0.45265
H         11.90880       -7.34649       -0.58929
O          6.38048       -6.16012        0.23302
F          9.14914      -10.76093        0.36809
F         11.63759       -9.86631       -0.18842
N         10.54791       -2.06530       -1.96494
N         13.24915       -5.23270       -1.30480
                                                  
  eps=3.36                                       
  epsinf=3.36                                    
  RSolv=7.28
 
