%mem=800MW
%nprocshared=32
%chk=Y6-HSO-scan-70-S1fromT1.chk
%rwf=Y6-HSO-scan-70-S1fromT1.rwf
#p wB97XD/6-31g** td(50-50,nstates=5) 6D 10F nosymm GFInput scf=(MaxCycle=20000) iop(3/107=0016000000,3/108=0016000000) SCRF=(PCM,Solvent=Generic,Read)

 HSO

0 1
C              -0.2378000000      0.0213600000     -0.0362200000
C              -0.1145300000     -0.1304200000      1.3506200000
C               1.1229400000      0.1231800000      1.9707200000
C               2.2557200000      0.5030900000      1.2557500000
C               2.1242000000      0.6461300000     -0.1193600000
C               0.8887300000      0.4142300000     -0.7503700000
C              -1.0872400000     -0.5572700000      2.3860800000
C              -0.4499600000     -0.3379600000      3.6956400000
C               0.9924800000     -0.0539500000      3.4394300000
C              -1.1266800000     -0.2084000000      4.8878000000
C              -0.7297600000      0.0099800000      6.2433600000
S               0.9204700000     -0.1318200000      6.8763100000
C               0.3453900000      0.1192300000      8.4889600000
C              -1.0430500000      0.3457400000      8.5207500000
C              -1.6721900000      0.2853800000      7.2648100000
S              -1.6708200000      0.6636800000     10.1470800000
C              -0.0507800000      0.4886600000     10.7757100000
C               0.9103000000      0.2102700000      9.7809600000
N               2.1521200000      0.0564800000     10.3572800000
C               1.9983200000      0.2674600000     11.7282100000
C               0.6082200000      0.4962500000     12.0094600000
C               2.9451100000      0.3102100000     12.7796400000
C               2.4937800000      0.3018100000     14.1504800000
C               1.0918200000      0.4334100000     14.4508200000
C               0.1481800000      0.5975900000     13.3694900000
N               4.3382900000      0.3229000000     12.7618100000
C               4.7643300000      0.2441300000     14.0725200000
C               3.6360200000      0.2287100000     14.9411000000
C               5.9792800000      0.2011400000     14.7606800000
C               5.7800600000      0.1454900000     16.1606100000
S               4.0715200000      0.1552100000     16.6299800000
C               6.9593500000      0.0687000000     16.9269600000
C               8.0879500000      0.0790500000     16.0955600000
S               7.6782300000      0.1424400000     14.3811000000
N              -1.1045500000      0.7729000000     13.7719400000
S              -1.0800900000      0.7258700000     15.4259500000
N               0.5402900000      0.4809900000     15.6570000000
C               9.4931100000     -0.1029800000     16.4836000000
C              10.3957100000      0.8985800000     16.7549700000
C              11.7865400000      0.8194100000     17.1371500000
C              12.2726200000      2.1987800000     17.3379200000
C              11.2296000000      3.1182400000     17.0790100000
C              10.0154900000      2.3582100000     16.7027100000
C              11.3834800000      4.4943100000     17.1858000000
C              12.6314400000      4.9796500000     17.5687500000
C              13.6764500000      4.0868500000     17.8324900000
C              13.5229700000      2.7046800000     17.7245100000
F              14.8715400000      4.5851600000     18.2045300000
F              12.8436000000      6.3085400000     17.6907700000
C              12.5698600000     -0.3610100000     17.2953100000
C              13.9403200000     -0.3618500000     17.6689500000
N              15.0701300000     -0.4236000000     17.9729900000
O               8.9222600000      2.8235800000     16.4106900000
C               7.0170300000     -0.0084300000     18.4307600000
C               5.2041600000      0.8420500000     11.6899700000
C               3.2452500000     -0.6662200000      9.6878300000
C              -3.1549000000      0.4818000000      7.0567200000
O               1.8941300000      0.0482100000      4.2584100000
C              -2.3039000000     -1.1661200000      2.1432600000
C              -2.8600500000     -1.3417500000      0.8341800000
N              -3.3675000000     -1.5076000000     -0.2017800000
F               3.1713600000      1.0164700000     -0.8673200000
F               0.8056800000      0.5813000000     -2.0766300000
C              12.0761100000     -1.6762500000     17.0890600000
N              11.7247700000     -2.7836000000     16.9322900000
C              -3.1167700000     -1.7660700000      3.1609900000
N              -3.8113900000     -2.2987700000      3.9305000000
H              14.3738800000      2.0799500000     17.9467500000
H              10.5682600000      5.1761200000     16.9820300000
H               9.7999100000     -1.1399000000     16.5400900000
H               8.0446800000     -0.1204000000     18.7717100000
H               6.4391400000     -0.8601700000     18.7991400000
H               6.6052000000      0.8991000000     18.8801800000
H               5.8707000000      1.5933400000     12.1099900000
H               4.5919600000      1.3320700000     10.9395800000
H               5.7933300000      0.0474300000     11.2362900000
H               2.8174800000     -1.4385700000      9.0511600000
H               3.8595600000     -1.1629600000     10.4322200000
H               3.8534100000      0.0037100000      9.0823700000
H              -3.6531400000     -0.4748900000      6.8855500000
H              -3.3630600000      1.1350900000      6.2084300000
H              -3.6110700000      0.9381000000      7.9345300000
H              -2.2049100000     -0.2508500000      4.7999900000
H               3.2048700000      0.6855100000      1.7410600000
H              -1.1585900000     -0.1327500000     -0.5765300000

  eps=3.36
  epsinf=3.36
  RSolv=7.28
 
