%mem=800MW
%nprocshared=32
%chk=Y6-HSO-scan-120-S1fromT2.chk
%rwf=Y6-HSO-scan-120-S1fromT2.rwf
#p wB97XD/6-31g** td(50-50,nstates=5) 6D 10F nosymm GFInput scf=(MaxCycle=20000) iop(3/107=0016000000,3/108=0016000000) SCRF=(PCM,Solvent=Generic,Read)

 HSO

0 1
C              -0.1631500000      0.0183600000     -0.0663300000
C              -0.0799800000     -0.0669500000      1.3279200000
C               1.1266200000      0.2743100000      1.9666200000
C               2.2591400000      0.6829800000      1.2710800000
C               2.1649800000      0.7661800000     -0.1140700000
C               0.9661800000      0.4404500000     -0.7653600000
C              -1.0616000000     -0.4944400000      2.3589500000
C              -0.4662100000     -0.2600400000      3.6612100000
C               0.9604400000      0.1247100000      3.4339500000
C              -1.1590600000     -0.2314400000      4.8759800000
C              -0.7803000000     -0.0714400000      6.2290700000
S               0.8781100000     -0.0776700000      6.8687400000
C               0.2768800000      0.0190200000      8.5003000000
C              -1.1333500000      0.0965500000      8.5308300000
C              -1.7517400000      0.0520600000      7.2796200000
S              -1.7841800000      0.2578500000     10.1749300000
C              -0.1521200000      0.2242000000     10.7991000000
C               0.8268200000      0.1043200000      9.7918600000
N               2.0848900000      0.0648800000     10.3687700000
C               1.9081000000      0.1911800000     11.7442200000
C               0.5123800000      0.2476200000     12.0385600000
C               2.8633100000      0.2808100000     12.8044300000
C               2.4368400000      0.1343200000     14.1576600000
C               1.0352100000      0.0836000000     14.4704700000
C               0.0623200000      0.2130000000     13.4035500000
N               4.2414500000      0.4771800000     12.7730500000
C               4.6926600000      0.3926200000     14.0799700000
C               3.6044800000      0.1731900000     14.9441200000
C               5.9209500000      0.4844700000     14.7647400000
C               5.7541500000      0.3228900000     16.1562300000
S               4.0670800000      0.0601400000     16.6248000000
C               6.9366400000      0.3566200000     16.9175200000
C               8.0571200000      0.5994500000     16.0813200000
S               7.5978500000      0.6893300000     14.3594200000
N              -1.1976000000      0.2220500000     13.8251500000
S              -1.1464300000      0.0706900000     15.4724900000
N               0.4936600000     -0.0078700000     15.6806700000
C               9.4442800000      0.6645300000     16.3711000000
C              10.0779600000      1.1639700000     17.5108300000
C              11.4574000000      0.9589900000     17.8906200000
C              11.7905100000      1.9437100000     18.9514400000
C              10.6389200000      2.6956500000     19.2527900000
C               9.5177100000      2.2566000000     18.3804700000
C              10.6213700000      3.6899000000     20.2243700000
C              11.8038800000      3.9350200000     20.9141500000
C              12.9611300000      3.1969500000     20.6239900000
C              12.9750700000      2.1984000000     19.6518800000
F              14.0851800000      3.4649500000     21.3072800000
F              11.8523400000      4.8823300000     21.8649500000
C              12.3086300000     -0.0468100000     17.4092700000
C              13.6878300000     -0.1569500000     17.7593600000
N              14.8227900000     -0.2906600000     17.9995900000
O               8.4034200000      2.7518500000     18.3352600000
C               6.9904900000      0.0423800000     18.3876600000
C               5.0020600000      1.1787900000     11.7272600000
C               3.2390200000     -0.5349400000      9.6814300000
C              -3.2406700000      0.1313600000      7.0557900000
O               1.8316900000      0.3019300000      4.2741900000
C              -2.2963400000     -1.1016800000      2.0892300000
C              -2.8572100000     -1.2159900000      0.7812700000
N              -3.3745200000     -1.3295200000     -0.2594500000
F               3.2187600000      1.1640000000     -0.8459100000
F               0.9124800000      0.5406100000     -2.1025900000
C              11.8795900000     -1.1065000000     16.5518000000
N              11.5916100000     -2.0092300000     15.8692000000
C              -3.1034100000     -1.7534400000      3.0714000000
N              -3.7995300000     -2.3325600000      3.8086600000
H              13.9010400000      1.6730700000     19.4778200000
H               9.7262900000      4.2554800000     20.4462100000
H              10.0930300000      0.3248200000     15.5712000000
H               7.9965100000     -0.2376900000     18.6967000000
H               6.3232000000     -0.7913200000     18.6184400000
H               6.6802900000      0.9028000000     18.9837700000
H               5.5157100000      2.0296500000     12.1727700000
H               4.3165700000      1.5659300000     10.9802700000
H               5.7302900000      0.5194600000     11.2573300000
H               2.8971200000     -1.3811400000      9.0867200000
H               3.9416800000     -0.9141300000     10.4166000000
H               3.7326500000      0.1872600000      9.0326200000
H              -3.4960200000      0.9355200000      6.3613000000
H              -3.7654600000      0.3263000000      7.9903400000
H              -3.6318200000     -0.8031900000      6.6480800000
H              -2.2321600000     -0.3273200000      4.7760600000
H               3.1824600000      0.9318600000      1.7767800000
H              -1.0527200000     -0.2146500000     -0.6300600000

  eps=3.36
  epsinf=3.36
  RSolv=7.28
 
