%mem=800MW
%nprocshared=32
%chk=IT-4Cl-HSO-scan-60-S1fromT2.chk
%rwf=IT-4Cl-HSO-scan-60-S1fromT2.rwf
#p wB97XD/6-31g** td(50-50,nstates=5) 6D 10F nosymm GFInput scf=(MaxCycle=20000) iop(3/107=0001100000,3/108=0001100000) SCRF=(PCM,Solvent=Generic,Read)

 HSO

0 1
C              -0.0437200000     -0.3987700000     -0.4157100000
C               0.0193700000     -0.2272000000      0.9748300000
C               1.2913900000     -0.1749900000      1.5684000000
C               2.4510500000     -0.2684300000      0.7962700000
C               2.3914700000     -0.4240400000     -0.5986300000
C               1.1190300000     -0.4914200000     -1.1856900000
C              -1.2682900000     -0.2211200000      1.8393500000
C              -2.5285100000      0.1769000000      1.0557500000
C              -3.4315900000     -0.8882700000      1.0018600000
C              -2.8962300000     -2.0571300000      1.6584000000
C              -1.6203900000     -1.6940100000      2.1737600000
S              -4.9290900000     -0.5310300000      0.1776300000
C              -4.3420700000      1.1041700000     -0.1205100000
C              -3.0467800000      1.3173800000      0.4198800000
C              -4.8799700000      2.2071200000     -0.7678000000
C              -4.0036500000      3.3299100000     -0.7556000000
S              -2.4892200000      2.9417600000      0.0892200000
C              -0.8473600000     -2.6271400000      2.8473900000
C              -1.3715000000     -3.9231700000      3.0021800000
C              -2.6502100000     -4.2848100000      2.4929600000
C              -3.4203100000     -3.3531600000      1.8133900000
C              -0.8206200000     -5.1009300000      3.6283700000
C              -1.6885500000     -6.1895100000      3.5054700000
C              -2.9763300000     -5.7750100000      2.7769700000
S               0.6611500000     -5.4449900000      4.4853900000
C               0.1224500000     -7.1108300000      4.6903300000
C              -1.1554800000     -7.3374100000      4.1152500000
S              -1.6500000000     -9.0024000000      4.3231600000
C              -0.1443100000     -9.3812100000      5.1883500000
C               0.6879000000     -8.2291000000      5.2854200000
C              -4.4065700000      4.5556300000     -1.3389400000
C              -3.8039300000      5.8036300000     -1.5219800000
C              -2.3694700000      6.1410500000     -1.2680400000
C              -2.1480400000      7.4927600000     -1.8455600000
C              -3.3613400000      7.9785300000     -2.3652700000
C              -4.4308600000      6.9724800000     -2.1142300000
C              -0.9653900000      8.2137900000     -1.9032600000
C              -0.9799400000      9.4727000000     -2.5181400000
C              -2.1838400000      9.9714300000     -3.0546700000
C              -3.3765000000      9.2337100000     -2.9783000000
Cl              0.5120600000     10.3832600000     -2.5979900000
Cl             -2.2445600000     11.5332400000     -3.8418100000
O              -1.5255800000      5.4518800000     -0.7128400000
C              -5.7994000000      7.1827000000     -2.3489800000
C              -6.3317100000      8.3386100000     -2.9991400000
N              -6.8395400000      9.2466300000     -3.5300500000
C              -1.1868400000      0.6855400000      3.0979700000
C              -0.5309900000      1.9270500000      3.0481500000
C              -0.5288400000      2.7865000000      4.1482300000
C              -1.1853700000      2.4474900000      5.3429500000
C              -1.8482500000      1.2118300000      5.3856500000
C              -1.8526700000      0.3489700000      4.2857900000
C              -3.1733400000     -6.4869000000      1.4139500000
C              -4.4271100000     -6.5001500000      0.7816700000
C              -4.5899000000     -7.0632300000     -0.4861700000
C              -3.5094500000     -7.6341500000     -1.1776100000
C              -2.2552500000     -7.6072400000     -0.5481200000
C              -2.0885500000     -7.0424700000      0.7188400000
C              -4.1601400000     -5.9550300000      3.7677100000
C              -4.8641900000     -7.1686400000      3.8418800000
C              -5.8665100000     -7.3640000000      4.7940500000
C              -6.2061800000     -6.3605100000      5.7163800000
C              -5.4957700000     -5.1529900000      5.6447100000
C              -4.4910100000     -4.9543000000      4.6934600000
C               0.2694200000    -10.6077000000      5.7634100000
C              -0.2657800000    -11.8974100000      5.8276600000
C              -1.4869400000    -12.3854700000      5.1166700000
C              -1.5218000000    -13.8593000000      5.3025900000
C              -0.4347900000    -14.2494100000      6.1053800000
C               0.3293500000    -13.0352300000      6.5081300000
C              -0.2587200000    -15.6067600000      6.3848500000
C              -1.1709600000    -16.5370200000      5.8608300000
C              -2.2610800000    -16.1253400000      5.0683400000
C              -2.4373200000    -14.7640000000      4.7877800000
C              -3.6947700000     -8.2802600000     -2.5393800000
C              -7.3099600000     -6.5767500000      6.7368700000
O              -2.3012500000    -11.7231500000      4.4893200000
C               1.3843600000    -13.0261100000      7.4353100000
C               1.9519200000    -14.2040300000      8.0122000000
N               2.4729400000    -15.1186900000      8.5183700000
Cl             -0.9054200000    -18.2282400000      6.2246100000
Cl             -3.4095300000    -17.2711700000      4.4127300000
C              -1.1552500000      3.3756600000      6.5445100000
C               3.6569000000     -0.4861500000     -1.4357800000
C               1.9948200000    -11.8477000000      7.9676300000
N               2.5322800000    -10.9367700000      8.4636600000
C              -6.8441800000      6.3048600000     -1.9215000000
N              -7.7554200000      5.6532100000     -1.5904100000
H              -0.0517900000      7.8136100000     -1.4855800000
H              -4.2681200000      9.6620800000     -3.4057400000
H              -5.4061900000      4.4704400000     -1.7425500000
H              -5.8544200000      2.2411400000     -1.2329600000
H               0.1259400000     -2.3728300000      3.2418500000
H              -4.3898200000     -3.6091100000      1.4106500000
H               1.6486100000     -8.2508300000      5.7790100000
H               1.2331400000    -10.4922900000      6.2393700000
H               0.5578400000    -15.9765000000      6.9829000000
H              -3.2669600000    -14.4287500000      4.1803800000
H              -2.3857100000     -0.5893800000      4.3679100000
H               3.4151400000     -0.2157300000      1.2922500000
H               1.3894000000     -0.0515400000      2.6396500000
H               1.0248000000     -0.6183400000     -2.2593800000
H              -1.0024500000     -0.4679900000     -0.9142700000
H              -2.3720000000      0.9110500000      6.2874700000
H              -0.0088900000      3.7358000000      4.0683100000
H              -0.0058700000      2.2305400000      2.1519400000
H              -5.2923900000     -6.0772400000      1.2765200000
H              -5.5764800000     -7.0567800000     -0.9385400000
H              -1.0986600000     -7.0361200000      1.1572400000
H              -1.3908100000     -8.0324900000     -1.0480600000
H              -3.9667300000     -4.0074300000      4.6879500000
H              -5.7226600000     -4.3517400000      6.3407600000
H              -6.3869300000     -8.3162000000      4.8163700000
H              -4.6430500000     -7.9702500000      3.1494700000
H              -1.3209000000      4.4151600000      6.2491600000
H              -1.9174800000      3.1077900000      7.2787000000
H              -0.1821900000      3.3306700000      7.0458800000
H               3.4770700000     -0.9600300000     -2.4029800000
H               4.0448200000      0.5204300000     -1.6279800000
H               4.4454900000     -1.0460700000     -0.9263400000
H              -7.2098900000     -7.5486700000      7.2278500000
H              -7.3001400000     -5.8057600000      7.5095200000
H              -8.2944300000     -6.5542100000      6.2571100000
H              -4.5482700000     -7.8549900000     -3.0718700000
H              -2.8078600000     -8.1555600000     -3.1651300000
H              -3.8739000000     -9.3562700000     -2.4354000000

  eps=4.88617
  epsinf=4.88617
  RSolv=8.36
 
