%mem=1000MW
%nprocshared=40
%chk=IT-4Cl-TDDFT-scan-90-S1.chk
#p wB97XD/6-31g** td=(nstates=1) scf=(MaxCycle=20000) iop(3/107=0001100000,3/108=0001100000) SCRF=(PCM,Solvent=Generic,Read)

 NTO

0 1
C         -0.09804       -0.05020       -0.12220
C         -0.03929       -0.03344        1.27887
C          1.22935       -0.06606        1.88096
C          2.39163       -0.09586        1.10790
C          2.33750       -0.09657       -0.29565
C          1.06767       -0.07590       -0.89219
C         -1.32759       -0.09966        2.14066
C         -2.58999        0.31802        1.37790
C         -3.46770       -0.78051        1.23197
C         -2.91815       -1.95570        1.81394
C         -1.65374       -1.59492        2.38370
S         -4.95710       -0.40609        0.40705
C         -4.41871        1.26139        0.24919
C         -3.13508        1.47599        0.82520
C         -4.99863        2.39987       -0.32086
C         -4.16656        3.51476       -0.21346
S         -2.66477        3.14900        0.63751
C         -0.88526       -2.54487        3.02764
C         -1.39088       -3.85827        3.10168
C         -2.65511       -4.22073        2.53503
C         -3.42190       -3.27648        1.88803
C         -0.84134       -5.04535        3.69283
C         -1.68495       -6.13766        3.50168
C         -2.95102       -5.72918        2.73839
S          0.61570       -5.39479        4.58949
C          0.09398       -7.06703        4.72369
C         -1.15302       -7.30135        4.10042
S         -1.63712       -8.96364        4.25641
C         -0.16087       -9.33980        5.16574
C          0.65017       -8.20179        5.31951
C         -4.49488        4.90160       -0.57983
C         -4.21341        5.52399       -1.77046
C         -3.48107        4.82794       -2.89510
C         -3.33518        5.83381       -3.97637
C         -3.94996        7.03701       -3.55764
C         -4.50448        6.87639       -2.20282
C         -2.73309        5.68267       -5.21393
C         -2.72917        6.77140       -6.09933
C         -3.34147        7.97607       -5.70662
C         -3.95162        8.11859       -4.45099
Cl        -1.96154        6.57979       -7.66872
Cl        -3.37146        9.36511       -6.78169
O         -3.08895        3.66985       -2.91473
C         -5.20682        7.88187       -1.47112
C         -5.33436        9.23265       -1.89414
N         -5.46774       10.36051       -2.18405
C         -1.26853        0.73080        3.45158
C         -0.57852        1.95303        3.50115
C         -0.59338        2.74025        4.65356
C         -1.30202        2.34619        5.80120
C         -2.00052        1.13101        5.74235
C         -1.98964        0.34045        4.58981
C         -3.06360       -6.38243        1.33525
C         -4.28239       -6.37800        0.63748
C         -4.37308       -6.88945       -0.65851
C         -3.25199       -7.42371       -1.31437
C         -2.03324       -7.41313       -0.61905
C         -1.93806       -6.89953        0.67721
C         -4.17498       -5.99011        3.65983
C         -4.86175       -7.21314        3.61932
C         -5.91147       -7.48099        4.50197
C         -6.31610       -6.54328        5.46395
C         -5.61688       -5.32600        5.51087
C         -4.56660       -5.05542        4.63163
C          0.24043      -10.58426        5.74688
C         -0.28231      -11.85870        5.76935
C         -1.46191      -12.35528        5.00330
C         -1.43808      -13.83719        5.11804
C         -0.36514      -14.23217        5.93621
C          0.32046      -13.01687        6.45446
C         -0.12926      -15.59523        6.13677
C         -0.97958      -16.53037        5.53125
C         -2.06720      -16.11546        4.73048
C         -2.29484      -14.75149        4.51985
C         -3.36055       -8.01661       -2.70805
C         -7.48051       -6.81897        6.39834
O         -2.28081      -11.69673        4.37888
C          1.26495      -13.00520        7.46657
C          1.79761      -14.18640        8.08182
N          2.27926      -15.09833        8.62542
Cl        -0.64887      -18.22540        5.79736
Cl        -3.14421      -17.26796        3.98197
C         -1.29144        3.19960        7.05682
C          3.60329       -0.08674       -1.13393
C          1.79077      -11.81649        8.07483
N          2.24795      -10.89892        8.63045
C         -5.86679        7.65305       -0.23414
N         -6.43668        7.52477        0.78273
H         -2.27512        4.74388       -5.49479
H         -4.41076        9.06305       -4.20827
H         -5.01193        5.44059        0.20435
H         -5.96541        2.44135       -0.79940
H          0.07011       -2.29674        3.46570
H         -4.37764       -3.52456        1.45033
H          1.59193       -8.22093        5.84902
H          1.18422      -10.46514        6.26227
H          0.69156      -15.96183        6.73088
H         -3.11721      -14.41815        3.90203
H         -2.55420       -0.58344        4.59246
H          3.35314       -0.11515        1.61086
H          1.32445       -0.05828        2.95967
H          0.97754       -0.07882       -1.97352
H         -1.05224       -0.04388       -0.63346
H         -2.56629        0.79075        6.60360
H         -0.04548        3.67695        4.65349
H         -0.01597        2.29732        2.64331
H         -5.17708       -5.98342        1.10242
H         -5.33492       -6.87194       -1.16082
H         -0.97163       -6.90385        1.16518
H         -1.13982       -7.81071       -1.08980
H         -4.05462       -4.10531        4.71676
H         -5.89215       -4.57446        6.24380
H         -6.41824       -8.43805        4.43283
H         -4.59328       -7.96602        2.89025
H         -1.46367        4.25340        6.82223
H         -2.05778        2.88219        7.76631
H         -0.32212        3.13275        7.56255
H          3.44801       -0.57099       -2.10053
H          3.92699        0.94150       -1.33010
H          4.42503       -0.59728       -0.62640
H         -7.62285       -7.88987        6.55747
H         -7.33148       -6.34781        7.37277
H         -8.41260       -6.42096        5.98161
H         -4.17406       -7.55997       -3.27588
H         -2.43485       -7.88189       -3.27224
H         -3.55892       -9.09291       -2.65476

  eps=4.88617
  epsinf=4.88617
  RSolv=8.36
 
