%mem=800MW
%nprocshared=40
%chk=ITIC-TDDFT-S1toT1-Singlet.chk
#p wB97XD/6-31g** td=(nstates=1) scf=(MaxCycle=20000) iop(3/107=0002200000,3/108=0002200000) SCRF=(PCM,Solvent=Generic,Read)

ITIC

0  1
C              -0.1587600000     -0.1446600000     -0.0121500000
C              -0.0660500000      0.0248100000      1.3752700000
C               1.1710300000     -0.2095400000      2.0108200000
C               2.3124100000     -0.5818300000      1.3085900000
C               2.2126400000     -0.7423500000     -0.0796300000
C               0.9865400000     -0.5304300000     -0.7234500000
C               1.0106600000     -0.0166300000      3.4752200000
C              -0.4283600000      0.2961900000      3.7095800000
C              -1.0641800000      0.4336300000      2.4016500000
C              -1.0819400000      0.3351600000      4.9359400000
C              -0.6735300000      0.2419000000      6.2946200000
S               0.9743300000      0.1357400000      6.9543800000
C               0.3568100000      0.1312000000      8.5890200000
C              -1.0638200000      0.1946000000      8.5962900000
C              -1.6376200000      0.2606800000      7.3334500000
C               0.9013200000      0.0624800000      9.8753300000
C              -0.1031700000      0.0751300000     10.8640000000
S              -1.7313600000      0.1725900000     10.2280200000
C               2.2908900000      0.0105400000     10.5220500000
C               1.8850000000      0.0268500000     12.0187300000
C               0.4535000000      0.0212900000     12.1666000000
C               2.7021700000      0.0253800000     13.1248700000
C               2.0895900000      0.0033900000     14.4037400000
C               0.6587200000     -0.0409800000     14.5507800000
C              -0.1585600000     -0.0267600000     13.4449000000
C               0.2536500000     -0.1196500000     16.0459500000
C               1.6419800000     -0.0614900000     16.6947500000
C               2.6450900000      0.0197700000     15.7078500000
S               4.2704600000      0.1332600000     16.3479700000
C               3.6039900000      0.0654800000     17.9786100000
C               2.1855800000     -0.0349300000     17.9830600000
S               1.5702800000     -0.1181800000     19.6166000000
C               3.2160100000     -0.0004000000     20.2801500000
C               4.1776600000      0.0893900000     19.2428400000
C              -0.5548900000      1.1155300000     16.5235200000
C              -1.3770800000      1.0508000000     17.6591100000
C              -2.0386400000      2.1851700000     18.1357000000
C              -1.9023200000      3.4313500000     17.5046300000
C              -1.0650400000      3.4960300000     16.3792500000
C              -0.4018800000      2.3645700000     15.9004500000
C              -2.6501000000      4.6543700000     18.0041200000
C              -0.4631000000     -1.4788900000     16.2592700000
C              -1.8421100000     -1.6125800000     16.0239600000
C              -2.4727000000     -2.8534000000     16.1245900000
C              -1.7557700000     -4.0145100000     16.4602000000
C              -0.3778700000     -3.8785800000     16.6829000000
C               0.2573400000     -2.6378200000     16.5806000000
C               3.6260900000      0.0407600000     21.6408100000
C               2.9779600000     -0.0617200000     22.8665000000
C               3.6150900000      0.0333300000     24.1775300000
C               2.6204100000     -0.4163400000     25.1904100000
C               1.3858200000     -0.6439900000     24.5477400000
C               1.5438400000     -0.4030500000     23.0904100000
C               0.2482600000     -1.0494000000     25.2377400000
C               0.3489000000     -1.2493000000     26.6207700000
C               1.5722600000     -1.0427600000     27.2714500000
C               2.7138100000     -0.6248600000     26.5725200000
C               3.0780800000      1.2735300000     10.0852400000
C               3.9015500000      1.2565000000      8.9488100000
C               4.5445200000      2.4150100000      8.5066700000
C               4.3873600000      3.6392700000      9.1747600000
C               3.5491800000      3.6564200000     10.3012800000
C               2.9043600000      2.5004300000     10.7458100000
C               3.0326800000     -1.3282000000     10.2642200000
C               2.3341200000     -2.4879800000      9.9010100000
C               2.9916800000     -3.7130400000      9.7582400000
C               4.3711300000     -3.8319700000      9.9806600000
C               5.0663800000     -2.6702200000     10.3573800000
C               4.4134700000     -1.4450700000     10.4986000000
C               4.8907700000      0.5232200000     24.4755700000
C               5.7871700000      1.1055700000     23.5242600000
N               6.5678000000      1.6075100000     22.8146300000
O               0.6581900000     -0.4898300000     22.2474600000
C              -2.4532800000     -5.3557300000     16.5999600000
C               5.1151100000      4.8891000000      8.7136100000
C               5.0928800000     -5.1552300000      9.7991500000
C              -2.3405100000      0.9310200000      2.1207800000
C              -3.2361300000      1.4794400000      3.0929000000
N              -4.0155100000      1.9560500000      3.8210400000
O               1.8981100000     -0.1167600000      4.3147200000
C               5.4504300000      0.5601300000     25.7917400000
N               5.9812500000      0.6212900000     26.8303500000
C              -2.8990300000      1.0154300000      0.8063400000
N              -3.4280700000      1.1141600000     -0.2302500000
H              -0.5177900000     -1.5687300000     27.1879800000
H               1.6453200000     -1.2091700000     28.3402200000
H              -0.6862000000     -1.2079300000     24.7137400000
H               3.6363300000     -0.4847200000     27.1137100000
H               4.6992100000      0.1613400000     21.7029800000
H               5.2364400000      0.1745500000     19.4400100000
H              -1.2347000000     -0.0458600000     13.5377200000
H               3.7782600000      0.0450100000     13.0316700000
H              -2.6982000000      0.3271800000      7.1384400000
H              -2.1572000000      0.4374400000      4.8751200000
H              -1.0834900000      0.0006700000     -0.5482800000
H               0.9141400000     -0.6681200000     -1.7963300000
H               3.0822100000     -1.0359600000     -0.6563500000
H               3.2487700000     -0.7458800000      1.8274100000
H               0.2412400000      2.4695400000     15.0357400000
H              -3.5405100000     -2.9147400000     15.9395000000
H              -2.4384300000     -0.7460800000     15.7666100000
H               0.2161300000     -4.7497100000     16.9402400000
H               1.3253700000     -2.5881400000     16.7504500000
H              -0.9225100000      4.4423100000     15.8671100000
H              -2.6667900000      2.0914000000     19.0156600000
H              -1.5147400000      0.1124500000     18.1799900000
H               4.9936000000     -0.5772200000     10.7867000000
H               6.1347600000     -2.7186000000     10.5431800000
H               1.2658700000     -2.4518600000      9.7292000000
H               2.4139400000     -4.5853500000      9.4698200000
H               2.2595900000      2.5681500000     11.6131800000
H               3.3913700000      4.5847800000     10.8410200000
H               5.1745400000      2.3579700000      7.6248500000
H               4.0547500000      0.3364100000      8.4003700000
H              -2.8291000000      4.6008300000     19.0802900000
H              -2.0983400000      5.5744000000     17.7980100000
H              -3.6258100000      4.7402000000     17.5125500000
H              -1.7498700000     -6.1850100000     16.5004800000
H              -2.9319600000     -5.4447000000     17.5814900000
H              -3.2332500000     -5.4804800000     15.8444400000
H               5.2868300000      4.8770300000      7.6349300000
H               4.5524500000      5.7934600000      8.9565000000
H               6.0932300000      4.9706500000      9.2011200000
H               5.8668000000     -5.2950000000     10.5583300000
H               4.4028700000     -5.9993600000      9.8596800000
H               5.5836200000     -5.1993400000      8.8205800000
                                                   
  eps=4.53299                                      
  epsinf=4.53299                                   
  RSolv=8.11                                       
 
