%mem=800MW
%nprocshared=32
%chk=IT-4Cl-HSO-scan-170-T2fromS1.chk
%rwf=IT-4Cl-HSO-scan-170-T2fromS1.rwf
#p wB97XD/6-31g** td(50-50,nstates=5) 6D 10F nosymm GFInput scf=(MaxCycle=20000) iop(3/107=0001100000,3/108=0001100000) SCRF=(PCM,Solvent=Generic,Read)

 HSO

0 1
C              -0.1941300000     -0.2906300000     -0.1809800000
C              -0.1494300000     -0.1377500000      1.2125700000
C               1.1140800000     -0.0532000000      1.8203500000
C               2.2832300000     -0.0980900000      1.0584800000
C               2.2419900000     -0.2352300000     -0.3392200000
C               0.9781600000     -0.3341500000     -0.9403400000
C              -1.4454200000     -0.1910500000      2.0619800000
C              -2.7088000000      0.1793900000      1.2740800000
C              -3.5777500000     -0.9267400000      1.1847700000
C              -3.0181000000     -2.0737100000      1.8033400000
C              -1.7486600000     -1.6826800000      2.3570800000
S              -5.0784600000     -0.5954600000      0.3496200000
C              -4.5444700000      1.0652500000      0.0993000000
C              -3.2581300000      1.3086400000      0.6587900000
C              -5.1342900000      2.1556600000     -0.5320300000
C              -4.3103000000      3.2988200000     -0.4935200000
S              -2.7828800000      2.9579500000      0.3733600000
C              -0.9622200000     -2.5976100000      3.0170400000
C              -1.4437800000     -3.9269100000      3.1291600000
C              -2.7135600000     -4.3178500000      2.5762400000
C              -3.5005000000     -3.4023500000      1.9172100000
C              -0.8737200000     -5.0793900000      3.7271000000
C              -1.7009000000     -6.2081800000      3.5576800000
C              -2.9836700000     -5.8270600000      2.8079800000
S               0.6043700000     -5.3984600000      4.6075600000
C               0.1186000000     -7.0862700000      4.7556300000
C              -1.1396200000     -7.3462200000      4.1460800000
S              -1.5784600000     -9.0287700000      4.3096100000
C              -0.0779300000     -9.3701300000      5.2003300000
C               0.7088400000     -8.1988700000      5.3394500000
C              -4.4836200000      4.6266900000     -0.9672600000
C              -5.4507200000      5.2294900000     -1.7726300000
C              -6.5016400000      4.5633100000     -2.5997700000
C              -7.0207000000      5.6076700000     -3.5265100000
C              -6.3960900000      6.8367500000     -3.2510100000
C              -5.4807100000      6.6548600000     -2.0925300000
C              -7.9656500000      5.4576900000     -4.5291100000
C              -8.2959700000      6.5751900000     -5.3081700000
C              -7.6679700000      7.8115300000     -5.0572800000
C              -6.7208600000      7.9504800000     -4.0295600000
Cl             -9.4856400000      6.3870000000     -6.5770600000
Cl             -8.0436300000      9.2277500000     -6.0154100000
O              -6.8798400000      3.3985600000     -2.5796700000
C              -4.8590700000      7.6939700000     -1.3941300000
C              -4.8835200000      9.0630600000     -1.8070800000
N              -4.8520800000     10.1964700000     -2.0867500000
C              -1.4154500000      0.6888500000      3.3408400000
C              -0.7849300000      1.9443100000      3.3371200000
C              -0.8277100000      2.7754000000      4.4577600000
C              -1.5071300000      2.3934900000      5.6267900000
C              -2.1475000000      1.1451200000      5.6217000000
C              -2.1074000000      0.3106200000      4.5012400000
C              -3.1098500000     -6.5020000000      1.4172500000
C              -4.3479700000     -6.5729100000      0.7582900000
C              -4.4493300000     -7.1030300000     -0.5294400000
C              -3.3203200000     -7.5798200000     -1.2155500000
C              -2.0828400000     -7.4929400000     -0.5595400000
C              -1.9772800000     -6.9611900000      0.7283200000
C              -4.1836100000     -6.0904200000      3.7582200000
C              -4.8305700000     -7.3376000000      3.7757400000
C              -5.8552200000     -7.6053700000      4.6844500000
C              -6.2754900000     -6.6442800000      5.6192400000
C              -5.6184200000     -5.4049800000      5.6076200000
C              -4.5904300000     -5.1338400000      4.7001100000
C               0.3630900000    -10.5979500000      5.7642300000
C              -0.1317900000    -11.8980200000      5.7976400000
C              -1.3261300000    -12.4093500000      5.0714500000
C              -1.3174400000    -13.8878000000      5.2336300000
C              -0.2253600000    -14.2604300000      6.0379300000
C               0.4946500000    -13.0319800000      6.4746900000
C              -0.0055300000    -15.6174600000      6.2889500000
C              -0.8841300000    -16.5652500000      5.7403900000
C              -1.9826600000    -16.1712100000      4.9501200000
C              -2.1997500000    -14.8105900000      4.6938300000
C              -3.4400200000     -8.1921600000     -2.5999300000
C              -7.4046800000     -6.9405600000      6.5899100000
O              -2.1575300000    -11.7664300000      4.4430600000
C               1.5244000000    -13.0089000000      7.4192900000
C               2.0940900000    -14.1793600000      8.0126300000
N               2.6128000000    -15.0855200000      8.5356000000
Cl             -0.5668800000    -18.2546000000      6.0706500000
Cl             -3.0928500000    -17.3382800000      4.2681100000
C              -1.5246900000      3.2918900000      6.8506200000
C               3.5161100000     -0.2467600000     -1.1650100000
C               2.1104700000    -11.8210900000      7.9612600000
N               2.6278500000    -10.9018900000      8.4629100000
C              -4.1849900000      7.5386300000     -0.1407100000
N              -3.6432200000      7.4984300000      0.8932000000
H              -8.4372800000      4.5011800000     -4.7078000000
H              -6.2652000000      8.9156800000     -3.8811800000
H              -3.6846700000      5.2888800000     -0.6597100000
H              -6.0991000000      2.1619200000     -1.0097700000
H              -0.0058100000     -2.3224700000      3.4375300000
H              -4.4546200000     -3.6781700000      1.4919600000
H               1.6587500000     -8.1964300000      5.8541900000
H               1.3135100000    -10.4592600000      6.2609700000
H               0.8205600000    -15.9721700000      6.8828900000
H              -3.0346600000    -14.4898500000      4.0859100000
H              -2.6258800000     -0.6385800000      4.5456900000
H               3.2403900000     -0.0220100000      1.5645900000
H               1.1977600000      0.0566100000      2.8942500000
H               0.8985100000     -0.4489100000     -2.0165000000
H              -1.1451400000     -0.3844600000     -0.6902300000
H              -2.6888100000      0.8123900000      6.5015300000
H              -0.3249900000      3.7361600000      4.4152300000
H              -0.2445700000      2.2800000000      2.4616400000
H              -5.2477000000     -6.2217900000      1.2475200000
H              -5.4254000000     -7.1464800000     -1.0019600000
H              -0.9981200000     -6.9050300000      1.1870800000
H              -1.1833100000     -7.8441200000     -1.0548800000
H              -4.1084600000     -4.1654900000      4.7415800000
H              -5.9059000000     -4.6352900000      6.3166300000
H              -6.3318800000     -8.5800500000      4.6614200000
H              -4.5475200000     -8.1081300000      3.0708900000
H              -1.7139100000      4.3333500000      6.5773400000
H              -2.2918800000      2.9850900000      7.5640300000
H              -0.5595000000      3.2613300000      7.3679600000
H               3.3625300000     -0.7249900000     -2.1345700000
H               3.8652400000      0.7748400000     -1.3522900000
H               4.3216500000     -0.7762800000     -0.6499100000
H              -7.2586200000     -7.9056000000      7.0832400000
H              -7.4823400000     -6.1744200000      7.3635300000
H              -8.3665500000     -6.9854800000      6.0679000000
H              -4.2638800000     -7.7490500000     -3.1640300000
H              -2.5222600000     -8.0582400000     -3.1768700000
H              -3.6303300000     -9.2689900000     -2.5301000000

  eps=4.88617
  epsinf=4.88617
  RSolv=8.36
 
