%mem=1000MW
%nprocshared=40
#p wB97XD/6-31g** nosymm pop=esp opt td=(triplet,nstates=3,root=2) scf=(MaxCycle=20000) iop(3/107=0016000000,3/108=0016000000) SCRF=(PCM,Solvent=Generic,Read)

 Y6 opt-TDdft

0 1
C         -0.06314        0.43456       -0.00224
C          0.01993        0.25631        1.38286
C          1.21042        0.59101        2.05209
C          2.33132        1.08287        1.39245
C          2.23914        1.25577        0.01549
C          1.05345        0.93972       -0.66468
C         -0.95153       -0.27370        2.37867
C         -0.36704       -0.09491        3.70057
C          1.04030        0.34841        3.50897
C         -1.07146       -0.15945        4.90456
C         -0.71481       -0.06337        6.26773
S          0.93580       -0.04037        6.92791
C          0.31267       -0.06572        8.55531
C         -1.10599       -0.04446        8.56558
C         -1.70377       -0.03994        7.31045
S         -1.78988       -0.01302       10.20657
C         -0.16669       -0.02883       10.85571
C          0.83934       -0.04684        9.84856
N          2.08710       -0.07974       10.44261
C          1.88749       -0.04894       11.82911
C          0.46534       -0.06196       12.09296
C          2.79816        0.03572       12.89444
C          2.34371       -0.17122       14.25249
C          0.93483       -0.28530       14.53117
C         -0.01596       -0.16691       13.44677
N          4.18427        0.24389       12.91119
C          4.60149        0.10878       14.22238
C          3.47685       -0.15558       15.05586
C          5.79645        0.18499       14.93665
C          5.59901       -0.03016       16.32631
S          3.89906       -0.32933       16.74424
C          6.75034       -0.01321       17.11588
C          7.89906        0.26628       16.31591
S          7.48609        0.42075       14.58687
N         -1.28321       -0.22513       13.83493
S         -1.26664       -0.42572       15.48072
N          0.37335       -0.43810       15.72342
C          9.27243        0.32310       16.64372
C          9.88050        0.75311       17.82804
C         11.25448        0.51694       18.21506
C         11.58136        1.45011       19.32737
C         10.42854        2.18949       19.64908
C          9.31634        1.79893       18.73785
C         10.40407        3.13931       20.66356
C         11.58080        3.34889       21.37560
C         12.73921        2.62208       21.06505
C         12.75959        1.66847       20.04870
F         13.85754        2.85637       21.77072
F         11.62190        4.25314       22.36781
C         12.10270       -0.46905       17.70499
C         13.47231       -0.61697       18.08364
N         14.59820       -0.78058       18.34504
O          8.20719        2.31035       18.70344
C          6.77224       -0.37934       18.57607
C          4.95305        1.02301       11.92795
C          3.26591       -0.61789        9.74545
C         -3.19279       -0.00782        7.06983
O          1.90276        0.51199        4.36271
C         -2.14757       -0.91394        2.05928
C         -2.67979       -0.99352        0.73440
N         -3.17351       -1.08471       -0.31901
F          3.28239        1.73381       -0.68110
F          1.00107        1.13199       -1.99188
C         11.68263       -1.47981       16.78347
N         11.40438       -2.34556       16.05148
C         -2.94914       -1.63940        2.99651
N         -3.63672       -2.27727        3.69079
H         13.68585        1.14930       19.85851
H          9.50893        3.69855       20.90087
H          9.94334        0.04262       15.83891
H          7.76508       -0.70340       18.88573
H          6.07631       -1.19843       18.77050
H          6.48564        0.47008       19.19856
H          5.44520        1.85279       12.43446
H          4.27435        1.44420       11.19279
H          5.70083        0.40649       11.43108
H          2.95033       -1.41906        9.07814
H          3.95125       -1.04541       10.47088
H          3.77157        0.15496        9.16805
H         -3.47308        0.82770        6.42394
H         -3.73605        0.10674        8.00713
H         -3.53892       -0.93035        6.60003
H         -2.13958       -0.28707        4.78660
H          3.24451        1.32702        1.91845
H         -0.94436        0.21423       -0.58400

  eps=3.36
  epsinf=3.36
  RSolv=7.28
 
