%mem=1000MW
%nprocshared=40
#p wB97XD/6-31g** nosymm pop=esp opt td=(nstates=2,root=1) scf=(MaxCycle=20000) iop(3/107=0016000000,3/108=0016000000) SCRF=(PCM,Solvent=Generic,Read)

 Y6 opt-TDdft

0 1
C         -0.04538        0.42398       -0.00153
C          0.02410        0.27185        1.38771
C          1.21988        0.59450        2.05605
C          2.35427        1.05054        1.39383
C          2.27364        1.20059        0.01336
C          1.08577        0.89325       -0.66653
C         -0.96346       -0.21746        2.38475
C         -0.38348       -0.04451        3.70320
C          1.04038        0.36939        3.51233
C         -1.08994       -0.08442        4.90918
C         -0.72752        0.00031        6.27353
S          0.92219       -0.05167        6.93335
C          0.29925       -0.05556        8.56030
C         -1.11088        0.02957        8.57572
C         -1.71215        0.06639        7.31597
S         -1.78595        0.09405       10.21597
C         -0.16423        0.01057       10.86053
C          0.82995       -0.05493        9.86328
N          2.07814       -0.13906       10.45733
C          1.87988       -0.09439       11.83517
C          0.47972       -0.04522       12.10937
C          2.81690       -0.07079       12.91531
C          2.36425       -0.28465       14.25140
C          0.95730       -0.34583       14.53668
C          0.00447       -0.15382       13.46174
N          4.19629        0.11977       12.92099
C          4.62141       -0.02981       14.23057
C          3.51578       -0.28751       15.06147
C          5.83496        0.03444       14.94408
C          5.63833       -0.17975       16.32429
S          3.94320       -0.46946       16.74566
C          6.80248       -0.15667       17.11382
C          7.93825        0.12804       16.31333
S          7.51892        0.26735       14.58484
N         -1.26279       -0.16121       13.86070
S         -1.24179       -0.40316       15.49807
N          0.39410       -0.50078       15.73042
C          9.31649        0.21270       16.64350
C          9.90181        0.71640       17.80632
C         11.27399        0.54848       18.22891
C         11.54512        1.53553       19.30498
C         10.36376        2.25325       19.57294
C          9.28303        1.78633       18.66552
C         10.28715        3.24300       20.54613
C         11.43990        3.51929       21.27323
C         12.62581        2.81432       21.01841
C         12.69915        1.81999       20.04437
F         13.71906        3.11123       21.73864
F         11.43265        4.46526       22.22667
C         12.16861       -0.42805       17.76589
C         13.53924       -0.49992       18.15670
N         14.67004       -0.60044       18.43051
O          8.15597        2.24791       18.59111
C          6.82573       -0.51206       18.57542
C          4.98364        0.86299       11.92539
C          3.24026       -0.70336        9.75388
C         -3.19749        0.16948        7.07812
O          1.89911        0.51623        4.37103
C         -2.18965       -0.82093        2.07156
C         -2.73936       -0.86547        0.75457
N         -3.24749       -0.92297       -0.29524
F          3.33035        1.64608       -0.68606
F          1.04479        1.05789       -1.99785
C         11.79580       -1.49216       16.88798
N         11.55257       -2.39609       16.18966
C         -2.99697       -1.53471        3.00950
N         -3.69118       -2.16167        3.70843
H         13.64403        1.32000       19.89851
H          9.36969        3.78217       20.74045
H          9.99542       -0.10635       15.86032
H          7.82984       -0.77511       18.90448
H          6.17466       -1.36885       18.76424
H          6.47684        0.32275       19.18645
H          5.49963        1.68384       12.42181
H          4.31618        1.29594       11.18722
H          5.71260        0.21876       11.43577
H          2.90085       -1.49618        9.08866
H          3.91887       -1.14842       10.47469
H          3.76023        0.05731        9.17315
H         -3.43815        1.01050        6.42323
H         -3.73190        0.32075        8.01531
H         -3.59072       -0.73979        6.61861
H         -2.16134       -0.17930        4.79189
H          3.26959        1.28487        1.92064
H         -0.92635        0.20796       -0.58520

  eps=3.36
  epsinf=3.36
  RSolv=7.28
 
