%mem=800MW
%nprocshared=64
#p wB97XD/6-31g** opt td=(triplet,nstates=3,root=2) pop=esp scf=(MaxCycle=20000) nosymm iop(3/107=0002300000,3/108=0002300000) SCRF=(PCM,Solvent=Generic,Read)

IT-2Cl

0  1
C         -0.47425        6.88986        3.40319
C         -1.57887        6.33951        4.06942
C         -1.55301        6.32940        5.47385
C         -0.47400        6.86598        6.17925
C          0.62609        7.43185        5.51506
C          0.60293        7.42773        4.11202
C         -2.73337        5.65437        3.29044
C         -2.80806        6.08518        1.81825
C         -2.51323        5.01046        0.97599
C         -2.20286        3.82312        1.73598
C         -2.35189        4.16098        3.10988
S         -2.60835        5.37601       -0.72870
C         -3.05559        7.03106       -0.32060
C         -3.12185        7.24032        1.08191
C         -3.34974        8.15360       -1.08077
C         -3.65434        9.29240       -0.28111
S         -3.54628        8.89738        1.44884
C         -2.12849        3.20733        4.09152
C         -1.74729        1.91782        3.67961
C         -1.57967        1.58560        2.30630
C         -1.81105        2.53689        1.32445
C         -1.45214        0.72540        4.43824
C         -1.06951       -0.32362        3.59859
C         -1.09958        0.12068        2.12892
S         -1.49418        0.31779        6.13559
C         -0.98498       -1.31986        5.72748
C         -0.80346       -1.49323        4.33039
S         -0.30571       -3.12862        3.96043
C         -0.32985       -3.56568        5.68318
C         -0.72601       -2.45471        6.48252
C         -4.01985       10.51464       -0.89481
C         -4.34079       11.79374       -0.43135
C         -4.19748       12.29152        0.97329
C         -4.42472       13.75682        0.92884
C         -4.73667       14.13526       -0.39150
C         -4.75216       12.91776       -1.25268
C         -4.35707       14.67588        1.97002
C         -4.59813       16.02558        1.69348
C         -4.90173       16.40235        0.37923
C         -4.98113       15.48262       -0.67656
H         -4.55010       16.76775        2.47885
Cl        -5.19883       18.10388        0.03050
O         -3.93006       11.63432        1.97018
C         -5.16334       12.89183       -2.59579
C         -5.47934       14.05789       -3.35958
N         -5.74330       14.96153       -4.05099
C         -4.13281        5.85312        3.93095
C         -4.47655        7.06161        4.55838
C         -5.75691        7.26698        5.07594
C         -6.75038        6.27868        4.98402
C         -6.40911        5.07987        4.33965
C         -5.12867        4.87125        3.82019
C          0.30719        0.17326        1.47554
C          0.44944        0.26104        0.08100
C          1.70660        0.40944       -0.50847
C          2.87485        0.47871        0.26739
C          2.72827        0.39672        1.66057
C          1.47177        0.25092        2.25352
C         -2.12057       -0.77058        1.37306
C         -1.71576       -1.94761        0.72390
C         -2.64701       -2.79712        0.12209
C         -4.02131       -2.51214        0.14841
C         -4.42346       -1.33975        0.80731
C         -3.49476       -0.48731        1.40926
C          0.00931       -4.79756        6.29319
C          0.39950       -6.05495        5.82275
C          0.39464       -6.51165        4.39688
C          0.63783       -7.97475        4.42014
C          0.83715       -8.38856        5.75165
C          0.76294       -7.19579        6.64393
C          1.07044       -9.74148        6.01899
C          1.09563      -10.63029        4.93423
C          0.90466      -10.21795        3.60950
C          0.67323       -8.86308        3.35114
C          4.24474        0.61170       -0.37385
C         -5.02783       -3.42742       -0.52579
O          0.21430       -5.82829        3.39813
C          1.06987       -7.19988        8.01462
C          1.35338       -8.38054        8.76852
N          1.58523       -9.29841        9.45265
Cl         1.38070      -12.33860        5.25955
H          0.93349      -10.93755        2.80245
C         -8.12845        6.49494        5.58343
C          1.77915        8.05269        6.28334
C          1.19674       -6.02872        8.82547
N          1.33868       -5.12295        9.54946
C         -5.37337       11.70344       -3.36307
N         -5.58680       10.78333       -4.05054
H         -4.12183       14.35415        2.97667
H         -5.21767       15.83613       -1.66651
H         -4.03108       10.40585       -1.97053
H         -3.36104        8.18770       -2.16058
H         -2.24455        3.44079        5.14011
H         -1.69432        2.30381        0.27580
H         -0.80469       -2.51756        7.55815
H         -0.07810       -4.72170        7.36832
H          1.22231      -10.12294        7.01504
H          0.52209       -8.51339        2.33770
H         -4.91772        3.93123        3.32624
H         -0.49584        6.84292        7.26433
H         -2.38126        5.90942        6.03073
H          1.43523        7.84972        3.55780
H         -0.43771        6.90073        2.32123
H         -7.14927        4.29232        4.23925
H         -5.97909        8.21341        5.55855
H         -3.74220        7.85018        4.65901
H         -0.42128        0.20727       -0.56055
H          1.77341        0.47200       -1.59009
H          1.41126        0.20522        3.33334
H          3.60425        0.44862        2.29947
H         -3.85710        0.40027        1.91261
H         -5.47726       -1.08451        0.85857
H         -2.29083       -3.69680       -0.36942
H         -0.66714       -2.21072        0.67706
H         -8.49117        7.50868        5.39463
H         -8.85923        5.79324        5.17613
H         -8.10486        6.35403        6.66980
H          2.72076        7.96181        5.73686
H          1.60080        9.12028        6.45415
H          1.90931        7.58193        7.26053
H         -4.75128       -4.47835       -0.41024
H         -6.02935       -3.29514       -0.11089
H         -5.08575       -3.22039       -1.60027
H          4.18257        1.08237       -1.35746
H          4.91826        1.20930        0.24517
H          4.70894       -0.37184       -0.50782
                                                   
  eps=4.57494                                      
  epsinf=4.57494                                   
  RSolv=7.71                                       
  

