%mem=800MW
%nprocshared=64
%chk=IEICO-HSO-w-00006-T1paraS1.chk
%rwf=IEICO-HSO-w-00006-T1paraS1.rwf
#p wB97XD/6-31g** td(50-50,nstates=5) 6D 10F nosymm GFInput scf=(MaxCycle=20000) iop(3/107=0000600000,3/108=0000600000) SCRF=(PCM,Solvent=Generic,Read)

IEICO

0  1
C              12.3579600000     -0.7615700000      9.8528100000
C              12.7224300000      0.1154100000      8.8236500000
C              14.0263900000      0.0402200000      8.2963900000
C              14.9657600000     -0.8795800000      8.7507200000
C              14.5916100000     -1.7561900000      9.7770000000
C              13.3018700000     -1.6888500000     10.3186800000
C              14.1844000000      1.0741100000      7.2409800000
C              12.8894700000      1.7987100000      7.1479600000
C              11.9718300000      1.1894600000      8.1035600000
C              12.6097000000      2.8874000000      6.3193300000
C              13.3293800000      3.6146600000      5.3424400000
C              12.7217600000      4.6989100000      4.6613400000
C              13.5385800000      5.3162100000      3.7213100000
C              14.8440000000      4.7381100000      3.6332600000
S              14.9812200000      3.3883300000      4.7693600000
C              15.9261200000      5.1146500000      2.8134300000
C              17.2170900000      4.5136100000      2.7842200000
C              18.0752300000      5.1151400000      1.8807600000
C              17.4908300000      6.1870300000      1.1787700000
S              15.8379700000      6.4641900000      1.6446300000
C              18.4088500000      6.7758000000      0.2738800000
C              19.6409900000      6.0392200000      0.3739200000
C              19.5173800000      4.8858700000      1.4050200000
C              20.7415000000      6.4115900000     -0.3630400000
C              20.6191700000      7.5271600000     -1.2335100000
C              19.3785000000      8.2470500000     -1.3533800000
C              18.2834600000      7.8853600000     -0.6033500000
C              19.5116900000      9.4244400000     -2.3547000000
C              20.9940000000      9.2791800000     -2.7300600000
C              21.5583400000      8.1617200000     -2.0837200000
S              23.2269200000      7.9178500000     -2.5151600000
C              23.1744100000      9.3498900000     -3.5848600000
C              21.8782900000      9.9425700000     -3.5603100000
C              18.6850100000      9.2321900000     -3.6553600000
C              18.5508300000     10.2976900000     -4.5642100000
C              17.8949200000     10.1298300000     -5.7831000000
C              17.3434100000      8.8898200000     -6.1527000000
C              17.4812600000      7.8299800000     -5.2465500000
C              18.1419900000      7.9945800000     -4.0233100000
C              16.6175800000      8.7207700000     -7.4759600000
C              19.1848800000     10.7435100000     -1.6090000000
C              17.8772300000     11.2521500000     -1.5801200000
C              17.5655400000     12.4011500000     -0.8479300000
C              18.5439100000     13.0864000000     -0.1110400000
C              19.8490900000     12.5682600000     -0.1336400000
C              20.1635400000     11.4195400000     -0.8633100000
C              24.2830000000      9.7964200000     -4.3277700000
S              24.1700600000     11.2198900000     -5.3745100000
C              25.8601000000     11.0833800000     -5.8559400000
C              26.4560400000      9.9575000000     -5.2336400000
C              25.6034100000      9.2474600000     -4.3968600000
C              19.5735100000      3.4729000000      0.7628400000
C              19.3667700000      3.2690200000     -0.6079200000
C              19.3238000000      1.9793100000     -1.1491300000
C              19.4792900000      0.8425700000     -0.3435500000
C              19.6795600000      1.0500000000      1.0324200000
C              19.7235900000      2.3343900000      1.5748100000
C              20.5803000000      5.1004900000      2.5123400000
C              20.3235600000      5.9240400000      3.6194700000
C              21.3078900000      6.1689700000      4.5800600000
C              22.5914100000      5.6100800000      4.4717100000
C              22.8494000000      4.7987800000      3.3557000000
C              21.8664000000      4.5502500000      2.3940900000
C              26.6189400000     11.9360400000     -6.6902200000
C              26.3393500000     13.0809600000     -7.4409200000
C              24.9936400000     13.6482700000     -7.7236700000
C              25.1834500000     14.7119900000     -8.7459900000
C              26.5562900000     14.8295700000     -9.0402200000
C              27.3131700000     13.8642900000     -8.1877700000
C              26.9677300000     15.7673900000     -9.9947400000
C              25.9973200000     16.5612700000    -10.6241300000
C              24.6369900000     16.4373000000    -10.3153100000
C              24.2173200000     15.5009000000     -9.3616000000
O              25.8827500000      8.1493000000     -3.6733200000
C              27.2087600000      7.5912000000     -3.7323200000
O              23.9206400000     13.3073600000     -7.2366600000
C              28.7077500000     13.8108000000     -8.0953900000
C              29.4354200000     13.0245000000     -7.1455300000
N              30.1024100000     12.4313600000     -6.3920800000
C              18.2018300000     14.3242100000      0.7001800000
C              19.4496500000     -0.5590700000     -0.9275400000
C              23.6637200000      5.8944400000      5.5094000000
O              13.2370900000      6.3554400000      2.9224600000
C              11.9245200000      6.9417100000      3.0009800000
C              10.6243400000      1.4901200000      8.3284600000
C               9.8055000000      0.8450400000      9.3095800000
N               9.0648300000      0.3791000000     10.0829200000
O              15.2027600000      1.2788200000      6.5878900000
C              29.5992200000     14.5810700000     -8.9076600000
N              30.3954200000     15.1630000000     -9.5331400000
C               9.8603200000      2.4622000000      7.6067200000
N               9.1608500000      3.2263800000      7.0669200000
H              15.2995300000     -2.4855700000     10.1536500000
H              15.9574600000     -0.9117300000      8.3165500000
H              13.0192300000     -2.3681700000     11.1149000000
H              11.3784500000     -0.7485500000     10.3037900000
H              11.7054300000      4.9952100000      4.8715400000
H              11.9176500000      7.7359200000      2.2591300000
H              11.7486500000      7.3624300000      3.9930400000
H              11.1570000000      6.2045600000      2.7572300000
H              17.4794700000      3.6802200000      3.4175000000
H              19.2306100000      4.1121200000     -1.2726600000
H              19.1624900000      1.8657800000     -2.2165200000
H              19.7999000000      0.1982100000      1.6946400000
H              19.8795700000      2.4449700000      2.6407800000
H              19.3501800000      6.3814300000      3.7458600000
H              21.0653200000      6.8038200000      5.4265800000
H              22.1094100000      3.9089200000      1.5558600000
H              23.8280400000      4.3456400000      3.2317100000
H              21.1837700000     11.0566300000     -0.8459500000
H              20.6372800000     13.0668100000      0.4220000000
H              17.0897100000     10.7615600000     -2.1386900000
H              16.5436000000     12.7673800000     -0.8591900000
H              18.9580100000     11.2718700000     -4.3228200000
H              17.8147600000     10.9774600000     -6.4566200000
H              18.2287800000      7.1408800000     -3.3640700000
H              17.0710300000      6.8548100000     -5.4896400000
H              17.3501700000      8.4264300000     -0.6711800000
H              21.6799200000      5.8809400000     -0.2841300000
H              21.6366900000     10.8233000000     -4.1347800000
H              18.0316500000     14.0667300000      1.7516700000
H              17.2957300000     14.8082500000      0.3295600000
H              19.0116200000     15.0575700000      0.6718600000
H              15.6512300000      9.2364500000     -7.4606300000
H              16.4283800000      7.6688700000     -7.6986900000
H              17.1967400000      9.1419100000     -8.3026500000
H              27.4918500000      9.7055600000     -5.4033000000
H              26.3141200000     17.2855000000    -11.3659800000
H              28.0034200000     15.8973800000    -10.2666500000
H              23.1704900000     15.3869500000     -9.1082800000
H              23.9101800000     17.0662800000    -10.8164900000
H              27.1909100000      6.7304600000     -3.0689500000
H              27.9476600000      8.3131500000     -3.3790000000
H              27.4454600000      7.2693700000     -4.7484900000
H              19.0021300000     -0.5698800000     -1.9234300000
H              18.8758600000     -1.2402900000     -0.2934400000
H              20.4618400000     -0.9695800000     -1.0145500000
H              23.2353900000      5.9865000000      6.5105200000
H              24.1791800000      6.8358100000      5.2875900000
H              24.4179200000      5.1050600000      5.5348700000
H              11.6173800000      3.3005400000      6.4294100000
H              27.6426700000     11.5921600000     -6.7496200000
                                                 
  eps=4.9548                                       
  epsinf=4.9548                                    
  RSolv=8.20                                       
                                                   
  
