%mem=800MW
%nprocshared=64
%chk=IEICO-HSO-w-00006-S1paraT1.chk
%rwf=IEICO-HSO-w-00006-S1paraT1.rwf
#p wB97XD/6-31g** td(50-50,nstates=5) 6D 10F nosymm GFInput scf=(MaxCycle=20000) iop(3/107=0000600000,3/108=0000600000) SCRF=(PCM,Solvent=Generic,Read)

IEICO

0  1
C              12.3443500000     -0.7694500000      9.8489200000
C              12.7081300000      0.1080200000      8.8186000000
C              14.0142200000      0.0327400000      8.2928700000
C              14.9538700000     -0.8852900000      8.7494000000
C              14.5799200000     -1.7613400000      9.7767600000
C              13.2890900000     -1.6946700000     10.3166000000
C              14.1721800000      1.0640200000      7.2359600000
C              12.8756800000      1.7876200000      7.1406500000
C              11.9569100000      1.1770200000      8.0989600000
C              12.5978700000      2.8715100000      6.3134600000
C              13.3217200000      3.6031400000      5.3340600000
C              12.7175100000      4.6811300000      4.6541600000
C              13.5431800000      5.3020200000      3.7128500000
C              14.8387800000      4.7258000000      3.6342000000
S              14.9743300000      3.3805800000      4.7658400000
C              15.9351300000      5.1037200000      2.8129100000
C              17.2187700000      4.5109200000      2.7899400000
C              18.0802600000      5.1177900000      1.8832900000
C              17.4920100000      6.1816100000      1.1827300000
S              15.8412600000      6.4482800000      1.6461600000
C              18.4098700000      6.7764000000      0.2762600000
C              19.6430100000      6.0447500000      0.3783300000
C              19.5230800000      4.8936600000      1.4111200000
C              20.7431300000      6.4205500000     -0.3593900000
C              20.6157400000      7.5332200000     -1.2283700000
C              19.3748100000      8.2489800000     -1.3494000000
C              18.2796400000      7.8833400000     -0.5995000000
C              19.5055800000      9.4264000000     -2.3497700000
C              20.9875500000      9.2847800000     -2.7230300000
C              21.5543900000      8.1731400000     -2.0816400000
S              23.2178400000      7.9352100000     -2.5158000000
C              23.1609100000      9.3639600000     -3.5807500000
C              21.8755900000      9.9527600000     -3.5575800000
C              18.6822400000      9.2309900000     -3.6520600000
C              18.5434200000     10.2970300000     -4.5595300000
C              17.8908800000     10.1266700000     -5.7798700000
C              17.3479200000      8.8837300000     -6.1522500000
C              17.4907200000      7.8233300000     -5.2473700000
C              18.1481400000      7.9902400000     -4.0228100000
C              16.6263000000      8.7119500000     -7.4774000000
C              19.1736200000     10.7434400000     -1.6029800000
C              17.8648300000     11.2492000000     -1.5765000000
C              17.5496100000     12.3969300000     -0.8439000000
C              18.5253400000     13.0834400000     -0.1045800000
C              19.8316500000     12.5679300000     -0.1249300000
C              20.1497400000     11.4204200000     -0.8548000000
C              24.2845400000      9.8098000000     -4.3273800000
S              24.1796000000     11.2387800000     -5.3543800000
C              25.8620400000     11.0879400000     -5.8527900000
C              26.4487700000      9.9603700000     -5.2421000000
C              25.5880300000      9.2504400000     -4.3998700000
C              19.5856200000      3.4794100000      0.7724900000
C              19.3765400000      3.2709500000     -0.5973100000
C              19.3406600000      1.9797500000     -1.1351400000
C              19.5053500000      0.8460600000     -0.3269400000
C              19.7067900000      1.0581700000      1.0481100000
C              19.7439700000      2.3441000000      1.5873100000
C              20.5841000000      5.1172600000      2.5184600000
C              20.3217400000      5.9433900000      3.6223600000
C              21.3037500000      6.1962500000      4.5832400000
C              22.5901000000      5.6432800000      4.4780400000
C              22.8534100000      4.8294100000      3.3650400000
C              21.8728700000      4.5727500000      2.4032100000
C              26.6250900000     11.9337000000     -6.7014900000
C              26.3567500000     13.0788800000     -7.4448200000
C              25.0208900000     13.6962700000     -7.6669600000
C              25.2052500000     14.7608200000     -8.6875300000
C              26.5686500000     14.8295200000     -9.0415500000
C              27.3273200000     13.8343200000     -8.2316500000
C              26.9693800000     15.7571500000    -10.0120200000
C              26.0017200000     16.5909500000    -10.5915400000
C              24.6529700000     16.5172300000    -10.2205700000
C              24.2426000000     15.5893200000     -9.2542300000
O              25.8668200000      8.1431600000     -3.6838300000
C              27.1887300000      7.5793000000     -3.7544000000
O              23.9588600000     13.3895400000     -7.1350100000
C              28.7227300000     13.7282200000     -8.2053500000
C              29.4653600000     12.8913700000     -7.3132000000
N              30.1455300000     12.2510100000     -6.6112800000
C              18.1794300000     14.3200100000      0.7068000000
C              19.4840600000     -0.5571900000     -0.9072600000
C              23.6599100000      5.9363600000      5.5157900000
O              13.2390100000      6.3437300000      2.9133600000
C              11.9256600000      6.9262100000      2.9908000000
C              10.6076900000      1.4786200000      8.3217700000
C               9.7892400000      0.8387800000      9.3056300000
N               9.0492900000      0.3760900000     10.0822700000
O              15.1902500000      1.2693100000      6.5825300000
C              29.6041900000     14.4880900000     -9.0373900000
N              30.3928300000     15.0610800000     -9.6811300000
C               9.8443700000      2.4462000000      7.5948700000
N               9.1459800000      3.2081700000      7.0495100000
H              15.2882800000     -2.4894000000     10.1551800000
H              15.9460000000     -0.9169000000      8.3160500000
H              13.0064500000     -2.3735800000     11.1132900000
H              11.3641100000     -0.7573000000     10.2984400000
H              11.7002100000      4.9781600000      4.8589600000
H              11.9176800000      7.7217500000      2.2501700000
H              11.7460200000      7.3458800000      3.9828000000
H              11.1591100000      6.1887200000      2.7443500000
H              17.4852800000      3.6799000000      3.4245100000
H              19.2330300000      4.1112500000     -1.2641000000
H              19.1777700000      1.8624900000     -2.2018500000
H              19.8336400000      0.2088700000      1.7122400000
H              19.9010200000      2.4583000000      2.6527000000
H              19.3459100000      6.3964700000      3.7456900000
H              21.0571900000      6.8327400000      5.4273400000
H              22.1199900000      3.9296300000      1.5675800000
H              23.8343500000      4.3806100000      3.2437500000
H              21.1705700000     11.0592000000     -0.8357200000
H              20.6177000000     13.0676600000      0.4326000000
H              17.0794400000     10.7575900000     -2.1371600000
H              16.5270400000     12.7612400000     -0.8568700000
H              18.9441000000     11.2733500000     -4.3159400000
H              17.8067400000     10.9746900000     -6.4523600000
H              18.2393000000      7.1358900000     -3.3649300000
H              17.0870800000      6.8460100000     -5.4926800000
H              17.3446600000      8.4211400000     -0.6680600000
H              21.6832400000      5.8932600000     -0.2797600000
H              21.6305200000     10.8327300000     -4.1316600000
H              18.0084400000     14.0614500000      1.7578800000
H              17.2727800000     14.8022300000      0.3352300000
H              18.9877000000     15.0550400000      0.6799500000
H              15.6600700000      9.2278600000     -7.4662400000
H              16.4377900000      7.6596300000     -7.6986200000
H              17.2083100000      9.1313800000     -8.3029600000
H              27.4808400000      9.6972400000     -5.4178400000
H              26.3113900000     17.3076300000    -11.3437600000
H              27.9948200000     15.8490300000    -10.3336900000
H              23.2049600000     15.5117800000     -8.9534900000
H              23.9283400000     17.1777000000    -10.6828800000
H              27.1705600000      6.7133400000     -3.0975500000
H              27.9343700000      8.2937400000     -3.3993400000
H              27.4198600000      7.2629800000     -4.7737700000
H              19.0359200000     -0.5735100000     -1.9027700000
H              18.9150800000     -1.2402600000     -0.2708700000
H              20.4987900000     -0.9613900000     -0.9938400000
H              23.2297600000      6.0324600000      6.5157000000
H              24.1728500000      6.8780700000      5.2896400000
H              24.4164100000      5.1494000000      5.5465200000
H              11.6047700000      3.2844700000      6.4192000000
H              27.6408200000     11.5694400000     -6.7750300000
                                                   
  eps=4.9548                                       
  epsinf=4.9548                                    
  RSolv=8.20                                       
                                                   
  
