%mem=800MW
%nprocshared=64
%chk=IEICO-HSO-w-00006-T2paraS1.chk
%rwf=IEICO-HSO-w-00006-T2paraS1.rwf
#p wB97XD/6-31g** td(50-50,nstates=5) 6D 10F nosymm GFInput scf=(MaxCycle=20000) iop(3/107=0000600000,3/108=0000600000) SCRF=(PCM,Solvent=Generic,Read)

IEICO

0  1
C              12.3336500000     -0.7965000000      9.8375800000
C              12.6989200000      0.0860100000      8.8132200000
C              14.0053500000      0.0150500000      8.2902100000
C              14.9455900000     -0.9041900000      8.7439500000
C              14.5705200000     -1.7857800000      9.7656600000
C              13.2785400000     -1.7232900000     10.3026800000
C              14.1636500000      1.0514700000      7.2389100000
C              12.8643500000      1.7751100000      7.1443700000
C              11.9482400000      1.1603100000      8.0960300000
C              12.5847000000      2.8652600000      6.3179200000
C              13.3070600000      3.5964800000      5.3430300000
C              12.7014200000      4.6803500000      4.6627000000
C              13.5244600000      5.3000900000      3.7257400000
C              14.8271700000      4.7226500000      3.6428800000
S              14.9619900000      3.3725400000      4.7750000000
C              15.9230400000      5.1013900000      2.8239200000
C              17.2044700000      4.5091000000      2.8000800000
C              18.0707500000      5.1239500000      1.8911400000
C              17.4837500000      6.1801100000      1.2014500000
S              15.8355800000      6.4493700000      1.6592100000
C              18.4168100000      6.7840700000      0.2788000000
C              19.6335700000      6.0522900000      0.3835300000
C              19.5142300000      4.9002600000      1.4161600000
C              20.7430700000      6.4289300000     -0.3592600000
C              20.6162700000      7.5326800000     -1.2218200000
C              19.3922200000      8.2499000000     -1.3439500000
C              18.2886400000      7.8852000000     -0.5869100000
C              19.5234500000      9.4301800000     -2.3417100000
C              21.0044500000      9.2847900000     -2.7226100000
C              21.5705700000      8.1823900000     -2.0908800000
S              23.2279100000      7.9345500000     -2.5293200000
C              23.1745900000      9.3615300000     -3.5981500000
C              21.8934200000      9.9530100000     -3.5695800000
C              18.6905900000      9.2438700000     -3.6391800000
C              18.5567000000     10.3115600000     -4.5454600000
C              17.8954400000     10.1487400000     -5.7623100000
C              17.3373000000      8.9118800000     -6.1321300000
C              17.4742500000      7.8497900000     -5.2283600000
C              18.1403200000      8.0094100000     -4.0073900000
C              16.6041600000      8.7484300000     -7.4521200000
C              19.1992400000     10.7470800000     -1.5905100000
C              17.8914100000     11.2547600000     -1.5531000000
C              17.5827900000     12.4022100000     -0.8170600000
C              18.5647200000     13.0870700000     -0.0846500000
C              19.8702600000     12.5702000000     -0.1159700000
C              20.1815400000     11.4231500000     -0.8496300000
C              24.2951300000      9.8028400000     -4.3497800000
S              24.1828600000     11.2207800000     -5.3973300000
C              25.8716600000     11.0779900000     -5.8842100000
C              26.4650500000      9.9537100000     -5.2615400000
C              25.6087200000      9.2486100000     -4.4188900000
C              19.5789100000      3.4865700000      0.7764800000
C              19.3774200000      3.2790800000     -0.5946400000
C              19.3421700000      1.9883000000     -1.1338100000
C              19.5009700000      0.8535600000     -0.3259700000
C              19.6963400000      1.0643500000      1.0501000000
C              19.7325800000      2.3499900000      1.5904500000
C              20.5767500000      5.1212500000      2.5229800000
C              20.3160300000      5.9435100000      3.6301900000
C              21.2992300000      6.1938900000      4.5905400000
C              22.5856200000      5.6415000000      4.4823400000
C              22.8475200000      4.8311000000      3.3666700000
C              21.8656300000      4.5773900000      2.4052000000
C              26.6307300000     11.9290600000     -6.7235800000
C              26.3503300000     13.0726500000     -7.4747800000
C              25.0010300000     13.6394200000     -7.7586900000
C              25.1895300000     14.7000300000     -8.7829500000
C              26.5629900000     14.8190400000     -9.0760200000
C              27.3211100000     13.8570000000     -8.2231200000
C              26.9729700000     15.7570400000    -10.0312900000
C              26.0013400000     16.5482800000    -10.6621200000
C              24.6407500000     16.4224200000    -10.3548100000
C              24.2223100000     15.4864800000     -9.4001200000
O              25.8866100000      8.1516100000     -3.6930800000
C              27.2109800000      7.5893000000     -3.7520700000
O              23.9305000000     13.2978800000     -7.2684900000
C              28.7176200000     13.8036500000     -8.1298500000
C              29.4447800000     13.0235600000     -7.1753100000
N              30.1117300000     12.4347500000     -6.4181200000
C              18.2260200000     14.3232700000      0.7305200000
C              19.4808200000     -0.5491400000     -0.9079400000
C              23.6566500000      5.9315400000      5.5198400000
O              13.2253000000      6.3404600000      2.9285100000
C              11.9123100000      6.9271700000      3.0028400000
C              10.5978400000      1.4604600000      8.3194200000
C               9.7792200000      0.8139100000      9.2988600000
N               9.0390000000      0.3461200000     10.0718700000
O              15.1812900000      1.2619700000      6.5878600000
C              29.6084200000     14.5695900000     -8.9460100000
N              30.4036600000     15.1487100000     -9.5756600000
C               9.8337100000      2.4318000000      7.5981800000
N               9.1333300000      3.1957600000      7.0586200000
H              15.2788600000     -2.5148800000     10.1419300000
H              15.9386700000     -0.9321400000      8.3126000000
H              12.9946400000     -2.4065900000     11.0950800000
H              11.3525000000     -0.7881700000     10.2851400000
H              11.6842700000      4.9761700000      4.8689400000
H              11.9089200000      7.7223700000      2.2620900000
H              11.7331400000      7.3464100000      3.9948300000
H              11.1457300000      6.1905700000      2.7549300000
H              17.4713400000      3.6755400000      3.4313100000
H              19.2385900000      4.1204900000     -1.2610100000
H              19.1845200000      1.8722300000     -2.2015000000
H              19.8190600000      0.2142900000      1.7141500000
H              19.8856100000      2.4630800000      2.6566200000
H              19.3401000000      6.3956600000      3.7558600000
H              21.0535300000      6.8276900000      5.4369900000
H              22.1117800000      3.9366200000      1.5674300000
H              23.8283600000      4.3826100000      3.2428400000
H              21.2020700000     11.0607800000     -0.8398200000
H              20.6613100000     13.0687100000      0.4356900000
H              17.1011600000     10.7647600000     -2.1083900000
H              16.5604200000     12.7674800000     -0.8216400000
H              18.9685600000     11.2837000000     -4.3036800000
H              17.8161800000     10.9980300000     -6.4338800000
H              18.2266800000      7.1541000000     -3.3501200000
H              17.0587300000      6.8768600000     -5.4715500000
H              17.3570000000      8.4292600000     -0.6546200000
H              21.6812800000      5.8983300000     -0.2767800000
H              21.6467600000     10.8333400000     -4.1426200000
H              18.0583000000     14.0635300000      1.7818800000
H              17.3193700000     14.8090600000      0.3634800000
H              19.0363600000     15.0560200000      0.7018300000
H              15.6346800000      9.2579100000     -7.4265300000
H              16.4197100000      7.6970800000     -7.6814900000
H              17.1750700000      9.1793200000     -8.2794800000
H              27.4994400000      9.6971100000     -5.4321900000
H              26.3175300000     17.2724400000    -11.4043400000
H              28.0086500000     15.8890800000    -10.3023100000
H              23.1755500000     15.3709600000     -9.1471900000
H              23.9133000000     17.0493300000    -10.8575300000
H              27.1915200000      6.7316000000     -3.0848200000
H              27.9525700000      8.3104800000     -3.4030000000
H              27.4449100000      7.2621500000     -4.7671300000
H              19.0315900000     -0.5647500000     -1.9030300000
H              18.9133300000     -1.2338700000     -0.2719700000
H              20.4959000000     -0.9522000000     -0.9963900000
H              23.2274700000      6.0264200000      6.5203200000
H              24.1707700000      6.8729600000      5.2951000000
H              24.4122100000      5.1435300000      5.5487300000
H              11.5916200000      3.2767100000      6.4261200000
H              27.6539900000     11.5842200000     -6.7839200000
                                         
  eps=4.9548                                       
  epsinf=4.9548                                    
  RSolv=8.20                                       
                                                   
  
