%mem=1000MW
%nprocshared=40
#p wB97XD/6-31g** nosymm pop=esp opt td=(triplet,nstates=3,root=2) scf=(MaxCycle=20000) iop(3/107=0016000000,3/108=0016000000) SCRF=(PCM,Solvent=Generic,Read)

 Y6 opt-TDdft

0 1
C         13.86816        2.43507       16.96250
C         12.57834        2.02759       16.60207
C         11.96766        2.59755       15.46896
C         12.59675        3.54733       14.67232
C         13.87818        3.94578       15.04006
C         14.49621        3.39632       16.17345
C         10.60453        2.02753       15.30748
C         10.38496        1.12694       16.47293
C         11.65046        1.02940       17.19223
C          9.16893        0.61841       16.91999
C          7.85616        0.56425       16.38248
C          6.74145        0.10626       17.15048
C          5.58666        0.04260       16.36743
C          5.75897        0.43513       15.01939
S          7.39622        0.92995       14.70446
S          3.92659       -0.46634       16.74278
C          3.48099       -0.14281       15.08497
C          4.56337        0.32650       14.29469
C          2.34861       -0.18363       14.27719
C          2.77217        0.22079       12.95656
N          4.12600        0.56961       13.00640
C          0.96130       -0.46610       14.53622
C         -0.00404       -0.32156       13.46866
C          0.45558       -0.02355       12.13723
C          1.86559        0.16289       11.88193
C         -0.18454        0.06673       10.90464
C          0.81162        0.24939        9.90955
N          2.05829        0.29037       10.50270
C          0.28384        0.29175        8.61105
C         -1.12392        0.16008        8.61846
S         -1.80154       -0.03262       10.24973
C         -1.72664        0.21508        7.35976
C         -0.74963        0.39060        6.33091
S          0.89339        0.52861        6.99909
N         -1.25691       -0.54809       13.84333
S         -1.20806       -0.92845       15.45509
N          0.42581       -0.80597       15.70212
C         -1.09938        0.37853        4.95549
C         -0.41006        0.61755        3.76954
C         -0.97515        0.50737        2.42863
C         -0.03732        1.17781        1.49142
C          1.11763        1.55730        2.20096
C          0.95416        1.19575        3.63231
C          2.20517        2.17647        1.59576
C          2.11812        2.43493        0.23153
C          0.96895        2.07517       -0.48834
C         -0.11364        1.44232        0.11850
F          3.13154        3.03540       -0.41348
F          0.91860        2.35129       -1.80107
C         -2.13246       -0.17333        2.04475
C         -2.89485       -1.02337        2.90441
N         -3.55127       -1.75725        3.53194
O          1.79014        1.37276        4.51015
C         -3.21205        0.09492        7.12334
C          3.28611       -0.03024        9.75787
C          4.81622        1.51568       12.11439
C          6.80065       -0.26333       18.61241
C         11.99147        0.10967       18.18537
C         11.17888       -1.00506       18.56148
N         10.58697       -1.95358       18.89761
O          9.82881        2.28486       14.39545
F         14.53815        4.86486       14.31668
F         15.72860        3.81483       16.50175
C         13.23411        0.12161       18.89110
N         14.22293        0.08367       19.51065
C         -2.66217       -0.15784        0.71752
N         -3.15570       -0.17684       -0.34045
H         14.39904        2.05727       17.82201
H         12.11808        3.96932       13.79885
H          9.20527        0.17995       17.90880
H          7.33216       -1.20610       18.75931
H          5.79943       -0.38274       19.02580
H          7.30508        0.50698       19.19897
H          5.22189        2.33369       12.70844
H          4.10129        1.94069       11.41713
H          5.62339        1.02786       11.56968
H          3.05837       -0.78664        9.00817
H          4.01977       -0.45257       10.43711
H          3.69478        0.85269        9.26867
H         -3.46001       -0.86147        6.65833
H         -3.58093        0.89308        6.47611
H         -3.76155        0.15734        8.06219
H         -2.14864        0.14841        4.82265
H          3.09030        2.45214        2.15337
H         -0.96457        1.19205       -0.49533

  eps=3.36
  epsinf=3.36
  RSolv=7.28


