%mem=800MW
%nprocshared=64
%chk=IEICO-4F-HSO-w-00004-T1paraS1.chk
%rwf=IEICO-4F-HSO-w-00004-T1paraS1.rwf
#p wB97XD/6-31g** td(50-50,nstates=5) 6D 10F nosymm GFInput scf=(MaxCycle=20000) iop(3/107=0000400000,3/108=0000400000) SCRF=(PCM,Solvent=Generic,Read)

IEICO-4F

0  1
C              12.3141600000     -0.8227500000      9.7869300000
C              12.6882900000      0.0526100000      8.7603800000
C              13.9849200000     -0.0377000000      8.2240200000
C              14.9197100000     -0.9715100000      8.6589900000
C              14.5342800000     -1.8406400000      9.6752700000
C              13.2489700000     -1.7571800000     10.2302800000
C              14.1516000000      1.0033600000      7.1752300000
C              12.8649200000      1.7408200000      7.0949200000
C              11.9475800000      1.1426000000      8.0558100000
C              12.5853500000      2.8255600000      6.2596700000
C              13.3068300000      3.5533800000      5.2852400000
C              12.6963300000      4.6322800000      4.5984000000
C              13.5182000000      5.2587500000      3.6691800000
C              14.8309200000      4.6936400000      3.5964800000
S              14.9664500000      3.3411500000      4.7296600000
C              15.9186000000      5.0860200000      2.7924300000
C              17.2187100000      4.5028800000      2.7788200000
C              18.0801200000      5.1206700000      1.8901000000
C              17.4892500000      6.1871500000      1.1841600000
S              15.8265900000      6.4383700000      1.6277000000
C              18.4099300000      6.7925500000      0.2934700000
C              19.6507300000      6.0724000000      0.4062900000
C              19.5320000000      4.9157600000      1.4342000000
C              20.7539200000      6.4611600000     -0.3178000000
C              20.6258900000      7.5775100000     -1.1859800000
C              19.3780800000      8.2826500000     -1.3172700000
C              18.2794000000      7.9037600000     -0.5811800000
C              19.5079600000      9.4650000000     -2.3134700000
C              20.9951900000      9.3364000000     -2.6759500000
C              21.5656900000      8.2243800000     -2.0260300000
S              23.2380100000      7.9944500000     -2.4459200000
C              23.1791000000      9.4224300000     -3.5193800000
C              21.8793400000     10.0064000000     -3.5017000000
C              18.6957800000      9.2681500000     -3.6225400000
C              18.5494500000     10.3379100000     -4.5245400000
C              17.9064300000     10.1671600000     -5.7498800000
C              17.3815000000      8.9198000000     -6.1334700000
C              17.5320200000      7.8557500000     -5.2342500000
C              18.1795700000      8.0232700000     -4.0043700000
C              16.6720100000      8.7471600000     -7.4651200000
C              19.1602300000     10.7772500000     -1.5651300000
C              17.8460600000     11.2694100000     -1.5430600000
C              17.5152300000     12.4114500000     -0.8083900000
C              18.4800600000     13.1057900000     -0.0621900000
C              19.7917700000     12.6039700000     -0.0780700000
C              20.1254500000     11.4623500000     -0.8103100000
C              24.2867600000      9.8667700000     -4.2665100000
S              24.1759500000     11.2893600000     -5.3136700000
C              25.8525800000     11.1223000000     -5.8314100000
C              26.4494200000     10.0031300000     -5.1986900000
C              25.6038700000      9.3115800000     -4.3393500000
C              19.6249800000      3.5048100000      0.7918700000
C              19.4376400000      3.2981700000     -0.5817700000
C              19.4437000000      2.0098700000     -1.1266300000
C              19.6313400000      0.8763600000     -0.3222200000
C              19.8029500000      1.0858400000      1.0567300000
C              19.7972500000      2.3697600000      1.6032600000
C              20.5773300000      5.1485900000      2.5551200000
C              20.2928600000      5.9630300000      3.6621400000
C              21.2625200000      6.2243100000      4.6335500000
C              22.5579800000      5.6918300000      4.5365500000
C              22.8434400000      4.8896200000      3.4205000000
C              21.8755200000      4.6246900000      2.4484300000
C              26.5966000000     11.9157600000     -6.7352000000
C              26.3295900000     13.0471000000     -7.5110800000
C              25.0357900000     13.7723700000     -7.5894300000
C              25.2132000000     14.8605400000     -8.5869600000
C              26.5269900000     14.8181500000     -9.0859800000
C              27.2660900000     13.7093500000     -8.4094100000
C              26.9144900000     15.7466500000    -10.0595200000
C              25.9749200000     16.6825800000    -10.4900000000
C              24.6717100000     16.7163700000     -9.9729600000
C              24.2735500000     15.7954000000     -9.0086400000
O              25.8867900000      8.2232100000     -3.6035400000
C              27.2089600000      7.6558200000     -3.6706700000
O              24.0045100000     13.5400300000     -6.9683300000
C              28.6185700000     13.4260200000     -8.6267700000
C              29.3690700000     12.4066400000     -7.9587700000
N              30.0581100000     11.6058700000     -7.4603900000
C              18.1179500000     14.3362800000      0.7514800000
C              19.6808100000     -0.5201000000     -0.9171700000
C              23.6144300000      5.9941700000      5.5853200000
O              13.2167400000      6.2958000000      2.8692100000
C              11.8995400000      6.8745200000      2.9362700000
C              10.6097700000      1.4655800000      8.3058400000
C               9.7940700000      0.8150300000      9.2854200000
N               9.0612700000      0.3405300000     10.0609900000
O              15.1707200000      1.1961600000      6.5214700000
C              29.4527700000     14.1402600000     -9.5443900000
N              30.2009100000     14.6674600000    -10.2696600000
C               9.8576600000      2.4703900000      7.6177100000
N               9.1679000000      3.2630200000      7.1074600000
H              15.9107600000     -1.0315600000      8.2294700000
H              11.3456800000     -0.8179400000     10.2602400000
H              11.6755100000      4.9196400000      4.7985400000
H              11.8954300000      7.6697000000      2.1955700000
H              11.7126900000      7.2923800000      3.9273800000
H              11.1389800000      6.1332000000      2.6840400000
H              17.4844300000      3.6706100000      3.4121600000
H              19.2816900000      4.1386600000     -1.2455400000
H              19.2989300000      1.8939000000     -2.1961300000
H              19.9437300000      0.2367700000      1.7183100000
H              19.9360500000      2.4820600000      2.6713800000
H              19.3095400000      6.4010400000      3.7801600000
H              20.9987900000      6.8514200000      5.4795300000
H              22.1401800000      3.9907800000      1.6112100000
H              23.8319900000      4.4562000000      3.3049500000
H              21.1501300000     11.1125000000     -0.7872900000
H              20.5698000000     13.1100200000      0.4850200000
H              17.0685200000     10.7714500000     -2.1090300000
H              16.4888800000     12.7648700000     -0.8252900000
H              18.9360500000     11.3177400000     -4.2722500000
H              17.8153400000     11.0184400000     -6.4173600000
H              18.2770100000      7.1661000000     -3.3510800000
H              17.1424000000      6.8749100000     -5.4882100000
H              17.3396200000      8.4321000000     -0.6582900000
H              21.6981900000      5.9424900000     -0.2309000000
H              21.6333500000     10.8830300000     -4.0805600000
H              17.9456000000     14.0729400000      1.8011600000
H              17.2078400000     14.8102400000      0.3777300000
H              18.9186700000     15.0797000000      0.7298300000
H              15.7095500000      9.2700400000     -7.4667200000
H              16.4786800000      7.6952100000     -7.6838100000
H              17.2659200000      9.1586300000     -8.2863700000
H              27.4781800000      9.7355200000     -5.3854000000
H              27.8965400000     15.7825200000    -10.5023800000
H              23.2688100000     15.8165600000     -8.6082600000
H              27.1953900000      6.8089700000     -2.9896700000
H              27.9565400000      8.3803700000     -3.3420600000
H              27.4290200000      7.3122500000     -4.6832800000
H              19.1324100000     -0.5756300000     -1.8600800000
H              19.2577200000     -1.2610600000     -0.2344400000
H              20.7160200000     -0.8168300000     -1.1206900000
H              23.1729800000      6.0898900000      6.5802900000
H              24.1241200000      6.9384500000      5.3625000000
H              24.3754300000      5.2119500000      5.6261900000
H              11.5902400000      3.2334400000      6.3629500000
H              27.5975700000     11.5217600000     -6.8352300000
F              23.8106400000     17.6476500000    -10.4208900000
F              26.3247400000     17.5821200000    -11.4269400000
F              12.9122600000     -2.6070600000     11.2169300000
F              15.3903400000     -2.7692900000     10.1381300000

 eps=4.99
 epsinf=4.99
 RSolv=7.92
 
