%mem=1000MW
%nprocshared=40
#p wB97XD/6-31g** nosymm pop=esp opt td=(triplet,nstates=3,root=2) scf=(MaxCycle=20000) iop(3/107=0001100000,3/108=0001100000) SCRF=(PCM,Solvent=Generic,Read)

 IT-4Cl opt-TDdft

0 1
C          0.61332       -0.13578        0.00889
C          0.46423       -0.08714        1.40162
C          1.63259       -0.08913        2.18336
C          2.89506       -0.12100        1.59028
C          3.04828       -0.15654        0.19341
C          1.88030       -0.16539       -0.58226
C         -0.93631       -0.16134        2.06270
C         -2.07698        0.24832        1.12002
C         -2.91816       -0.86296        0.85285
C         -2.46019       -2.02440        1.50847
C         -1.28591       -1.66080        2.26331
S         -4.28696       -0.48990       -0.17931
C         -3.73760        1.18521       -0.26134
C         -2.54258        1.39941        0.49774
C         -4.24054        2.30349       -0.90079
C         -3.44828        3.45755       -0.66268
S         -2.05601        3.07146        0.39044
C         -0.62443       -2.59634        3.01995
C         -1.13354       -3.92487        3.03691
C         -2.30380       -4.28968        2.27679
C         -2.96478       -3.35487        1.51950
C         -0.69408       -5.08368        3.71508
C         -1.50224       -6.20355        3.40169
C         -2.62830       -5.79870        2.44055
S          0.59591       -5.43079        4.85285
C          0.04834       -7.10733        4.92014
C         -1.08227       -7.34387        4.08148
S         -1.59197       -9.01381        4.17379
C         -0.29712       -9.38180        5.33560
C          0.48314       -8.22188        5.61291
C         -3.61030        4.80757       -1.04099
C         -4.45888        5.42644       -1.96972
C         -5.16887        4.78389       -3.11787
C         -5.60403        5.89988       -4.00714
C         -5.25399        7.13038       -3.42713
C         -4.61122        6.86662       -2.10806
C         -6.24728        5.80977       -5.23202
C         -6.54641        6.99461       -5.91806
C         -6.19312        8.23702       -5.35482
C         -5.55059        8.31180       -4.10821
Cl        -7.35218        6.88203       -7.46710
Cl        -6.53800        9.73944       -6.18355
O         -5.34594        3.59479       -3.34684
C         -4.31714        7.83929       -1.15044
C         -4.43456        9.24713       -1.37713
N         -4.49576       10.40699       -1.49393
C         -1.07758        0.67274        3.36467
C         -0.42505        1.90563        3.51428
C         -0.62612        2.69554        4.65043
C         -1.49207        2.29312        5.67758
C         -2.15088        1.06206        5.51993
C         -1.95278        0.27136        4.38754
C         -2.51270       -6.46190        1.04338
C         -3.60492       -6.47397        0.16016
C         -3.48363       -6.99686       -1.12894
C         -2.26810       -7.52468       -1.59339
C         -1.17543       -7.49764       -0.71300
C         -1.29268       -6.97288        0.57645
C         -3.98106       -6.05660        3.15800
C         -4.65101       -7.28357        3.01894
C         -5.82144       -7.55017        3.73107
C         -6.36925       -6.60873        4.61831
C         -5.69098       -5.38966        4.76420
C         -4.51863       -5.11900        4.05243
C          0.01263      -10.61443        5.95750
C         -0.54317      -11.89437        5.93692
C         -1.79598      -12.30425        5.24777
C         -2.09488      -13.68868        5.70285
C         -1.08227      -14.12117        6.57554
C         -0.04719      -13.04983        6.67822
C         -1.18798      -15.38613        7.15821
C         -2.29496      -16.19159        6.84629
C         -3.29169      -15.74733        5.95409
C         -3.18822      -14.47588        5.37569
C         -2.14606       -8.13201       -2.97955
C         -7.65154       -6.90592        5.37569
O         -2.47566      -11.65059        4.46689
C          1.18694      -13.20094        7.31120
C          1.57509      -14.36775        8.04407
N          1.96205      -15.27871        8.66267
Cl        -2.39570      -17.76569        7.60428
Cl        -4.67240      -16.74102        5.54711
C         -1.73627        3.16011        6.89994
C          4.42771       -0.16766       -0.44130
C          2.24966      -12.24154        7.27218
N          3.16889      -11.52201        7.27335
C         -3.93355        7.55434        0.20016
N         -3.64560        7.40770        1.32186
H         -6.50978        4.84847       -5.65206
H         -5.29788        9.28514       -3.72058
H         -2.93235        5.48141       -0.53256
H         -5.12725        2.33261       -1.51012
H          0.25513       -2.34094        3.59336
H         -3.84548       -3.60891        0.94752
H          1.32014       -8.24052        6.29593
H          0.86568      -10.50041        6.61201
H         -0.45755      -15.77100        7.85056
H         -3.94515      -14.11728        4.69168
H         -2.48971       -0.66529        4.30973
H          3.77304       -0.11661        2.22881
H          1.56517       -0.05747        3.26365
H          1.95118       -0.19772       -1.66474
H         -0.25740       -0.15625       -0.63455
H         -2.83304        0.71357        6.28897
H         -0.09813        3.64033        4.72913
H          0.25856        2.25702        2.75254
H         -4.56529       -6.08468        0.47471
H         -4.35344       -6.99379       -1.77837
H         -0.41689       -6.96584        1.21306
H         -0.21575       -7.89149       -1.03221
H         -4.02856       -4.16619        4.20716
H         -6.07493       -4.63572        5.44399
H         -6.31031       -8.50912        3.59220
H         -4.26999       -8.04033        2.34590
H         -0.97218        3.93280        7.00467
H         -2.70734        3.66206        6.82941
H         -1.74312        2.56461        7.81696
H          4.37594       -0.37774       -1.51124
H          4.92178        0.80188       -0.31637
H          5.07148       -0.92168        0.02050
H         -7.59926       -7.87858        5.87314
H         -7.85582       -6.14935        6.13564
H         -8.50883       -6.93457        4.69468
H         -2.88452       -7.71525       -3.66811
H         -1.15383       -7.96372       -3.40499
H         -2.30653       -9.21538       -2.94139

  eps=4.88617
  epsinf=4.88617
  RSolv=8.36
 
