%mem=1000MW
%nprocshared=40
#p wB97XD/6-31g** nosymm pop=esp opt td=(nstates=2,root=1) scf=(MaxCycle=20000) iop(3/107=0001100000,3/108=0001100000) SCRF=(PCM,Solvent=Generic,Read)

 IT-4Cl opt-TDdft

0 1
C          0.59679       -0.14990        0.01869
C          0.45011       -0.09646        1.41157
C          1.62000       -0.10453        2.19103
C          2.88141       -0.14825        1.59623
C          3.03211       -0.19002        0.19942
C          1.86264       -0.19193       -0.57420
C         -0.94988       -0.15644        2.07703
C         -2.09143        0.25691        1.13609
C         -2.93234       -0.82565        0.87579
C         -2.46818       -2.01726        1.54716
C         -1.30779       -1.65217        2.28452
S         -4.30317       -0.45684       -0.13862
C         -3.75098        1.21365       -0.23512
C         -2.55830        1.42432        0.50792
C         -4.25458        2.33825       -0.88048
C         -3.45165        3.48212       -0.65632
S         -2.05931        3.08867        0.39321
C         -0.63814       -2.59803        3.04613
C         -1.14793       -3.90948        3.06170
C         -2.30357       -4.27563        2.31565
C         -2.97160       -3.32973        1.55305
C         -0.69893       -5.09606        3.74875
C         -1.50197       -6.19611        3.43006
C         -2.62817       -5.78463        2.47071
S          0.58407       -5.43959        4.88352
C          0.04206       -7.11683        4.94675
C         -1.08204       -7.34926        4.10995
S         -1.59401       -9.01967        4.19407
C         -0.30088       -9.39601        5.35369
C          0.48010       -8.23672        5.63736
C         -3.60775        4.83347       -1.04178
C         -4.44463        5.43847       -1.99044
C         -5.10042        4.77300       -3.16632
C         -5.55396        5.87581       -4.05939
C         -5.26642        7.11481       -3.46095
C         -4.63405        6.86907       -2.13586
C         -6.17149        5.76894       -5.29598
C         -6.51194        6.94559       -5.97680
C         -6.22690        8.19647       -5.39350
C         -5.60847        8.28819       -4.13582
Cl        -7.28412        6.81269       -7.54125
Cl        -6.63055        9.68981       -6.21137
O         -5.22115        3.57937       -3.39980
C         -4.36660        7.85224       -1.17170
C         -4.48613        9.25653       -1.40836
N         -4.54909       10.41566       -1.53599
C         -1.07371        0.68504        3.37604
C         -0.41966        1.91946        3.50506
C         -0.59992        2.71802        4.63858
C         -1.44622        2.32270        5.68469
C         -2.10690        1.09026        5.54792
C         -1.92908        0.29060        4.41807
C         -2.51087       -6.43860        1.06875
C         -3.60081       -6.44187        0.18262
C         -3.47785       -6.95594       -1.11004
C         -2.26272       -7.48339       -1.57549
C         -1.17220       -7.46558       -0.69204
C         -1.29130       -6.95019        0.60091
C         -3.98353       -6.04617        3.18192
C         -4.65241       -7.27277        3.03535
C         -5.82647       -7.54231        3.74061
C         -6.37939       -6.60400        4.62792
C         -5.70233       -5.38520        4.78131
C         -4.52649       -5.11161        4.07629
C          0.01037      -10.63284        5.96784
C         -0.54514      -11.91641        5.93696
C         -1.81113      -12.31778        5.25094
C         -2.10302      -13.70844        5.68469
C         -1.07648      -14.15156        6.53762
C         -0.04902      -13.07837        6.65380
C         -1.16803      -15.43137        7.09051
C         -2.27451      -16.23610        6.77297
C         -3.28599      -15.77912        5.90484
C         -3.19525      -14.49451        5.35270
C         -2.13864       -8.08107       -2.96570
C         -7.66589       -6.90386        5.37718
O         -2.49376      -11.64831        4.48843
C          1.19451      -13.22827        7.29046
C          1.57716      -14.38745        8.03336
N          1.95795      -15.29424        8.66349
Cl        -2.35406      -17.82904        7.49377
Cl        -4.66784      -16.77108        5.49430
C         -1.66712        3.19841        6.90537
C          4.41044       -0.21464       -0.43747
C          2.26017      -12.27644        7.23844
N          3.18432      -11.56181        7.22935
C         -4.00912        7.57381        0.18551
N         -3.74229        7.43023        1.31335
H         -6.38367        4.80088       -5.72866
H         -5.41126        9.26825       -3.73339
H         -2.94370        5.51308       -0.52263
H         -5.15008        2.36815       -1.47648
H          0.24474       -2.34128        3.61389
H         -3.85283       -3.58600        0.98277
H          1.31720       -8.25835        6.31998
H          0.86380      -10.52430        6.62234
H         -0.42595      -15.82913        7.76293
H         -3.96126      -14.12604        4.68412
H         -2.46656       -0.64706        4.35749
H          3.76039       -0.14830        2.23346
H          1.55466       -0.06765        3.27129
H          1.93156       -0.22805       -1.65673
H         -0.27523       -0.16485       -0.62306
H         -2.77426        0.74681        6.33216
H         -0.07101        3.66361        4.70035
H          0.24935        2.26569        2.72797
H         -4.56112       -6.05263        0.49745
H         -4.34619       -6.94610       -1.76143
H         -0.41737       -6.95022        1.24002
H         -0.21277       -7.85984       -1.01160
H         -4.03736       -4.15918        4.23640
H         -6.09023       -4.63349        5.46139
H         -6.31419       -8.50107        3.59615
H         -4.26767       -8.02709        2.36162
H         -0.89862        3.96892        6.99241
H         -2.63739        3.70364        6.84793
H         -1.66088        2.60899        7.82630
H          4.35521       -0.42758       -1.50668
H          4.91283        0.75111       -0.31634
H          5.04857       -0.97263        0.02567
H         -7.61522       -7.87688        5.87417
H         -7.87603       -6.14830        6.13652
H         -8.51897       -6.93331        4.69093
H         -2.87599       -7.65937       -3.65247
H         -1.14575       -7.90978       -3.38847
H         -2.29913       -9.16470       -2.93573

  eps=4.88617
  epsinf=4.88617
  RSolv=8.36
 
