%mem=1000MW
%nprocshared=40
#p wB97XD/6-31g** nosymm pop=esp opt td=(triplet,nstates=3,root=2) scf=(MaxCycle=20000) iop(3/107=0001100000,3/108=0001100000) SCRF=(PCM,Solvent=Generic,Read)

 IT-4Cl opt-TDdft

0 1
C         -0.16756       -0.10989       -0.19153
C         -0.10449       -0.05603        1.20849
C          1.16617       -0.05209        1.80695
C          2.32641       -0.08091        1.03073
C          2.26785       -0.11855       -0.37217
C          0.99603       -0.13562       -0.96470
C         -1.38952       -0.12488        2.07436
C         -2.65806        0.28061        1.31511
C         -3.53335       -0.82219        1.18701
C         -2.97538       -1.99000        1.77618
C         -1.70564       -1.62013        2.32817
S         -5.03013       -0.46042        0.36954
C         -4.49848        1.20730        0.19161
C         -3.21140        1.43150        0.75597
C         -5.08733        2.33898       -0.38309
C         -4.25964        3.45836       -0.28924
S         -2.74973        3.10499        0.55230
C         -0.92353       -2.56252        2.96661
C         -1.42422       -3.87660        3.05922
C         -2.69792       -4.24619        2.51894
C         -3.47529       -3.31111        1.87122
C         -0.86074       -5.05809        3.64835
C         -1.70591       -6.15348        3.48308
C         -2.99315       -5.75047        2.75205
S          0.61645       -5.39826        4.51527
C          0.10274       -7.07111        4.67006
C         -1.15697       -7.31241        4.07580
S         -1.63044       -8.97626        4.24866
C         -0.13409       -9.34247        5.12826
C          0.67570       -8.20090        5.25931
C         -4.59635        4.84240       -0.65866
C         -4.32143        5.46373       -1.85130
C         -3.59170        4.76813       -2.97791
C         -3.44760        5.77478       -4.05872
C         -4.06233        6.97747       -3.63842
C         -4.61516        6.81574       -2.28309
C         -2.84630        5.62500       -5.29684
C         -2.84301        6.71466       -6.18108
C         -3.45529        7.91884       -5.78678
C         -4.06481        8.05995       -4.53071
Cl        -2.07593        6.52490       -7.75097
Cl        -3.48582        9.30908       -6.86030
O         -3.19998        3.60994       -2.99902
C         -5.31720        7.82029       -1.54979
C         -5.44567        9.17142       -1.97140
N         -5.57965       10.29953       -2.26006
C         -1.33258        0.71368        3.38055
C         -0.66289        1.94774        3.41654
C         -0.67994        2.74148        4.56447
C         -1.37070        2.34232        5.72118
C         -2.04926        1.11528        5.67596
C         -2.03605        0.31814        4.52797
C         -3.15563       -6.42552        1.36542
C         -4.40030       -6.44372        0.71561
C         -4.53455       -6.97476       -0.56888
C         -3.43355       -7.50641       -1.25986
C         -2.18890       -7.47313       -0.61240
C         -2.05018       -6.94008        0.67180
C         -4.18467       -5.98775        3.72230
C         -4.87095       -7.21342        3.73965
C         -5.88323       -7.45919        4.66915
C         -6.25123       -6.49702        5.62400
C         -5.55580       -5.27871        5.61062
C         -4.54059       -5.02976        4.68294
C          0.28302      -10.58247        5.70788
C         -0.23335      -11.85908        5.74455
C         -1.42031      -12.36646        4.99696
C         -1.38213      -13.84814        5.11339
C         -0.29490      -14.23262        5.91761
C          0.38553      -13.01058        6.42633
C         -0.04296      -15.59317        6.11545
C         -0.89273      -16.53661        5.52217
C         -1.99545      -16.13251        4.73662
C         -2.23841      -14.77091        4.52762
C         -3.58889       -8.11964       -2.64032
C         -7.36604       -6.76889        6.61841
O         -2.25371      -11.71559        4.38383
C          1.33719      -12.98807        7.43141
C          1.88238      -14.16319        8.04731
N          2.37357      -15.06989        8.59108
Cl        -0.54245      -18.22832        5.78442
Cl        -3.07262      -17.29561        4.00493
C         -1.36158        3.20193        6.97255
C          3.53130       -0.10805       -1.21396
C          1.85690      -11.79275        8.03199
N          2.30944      -10.86879        8.58074
C         -5.97600        7.58997       -0.31248
N         -6.54499        7.46029        0.70472
H         -2.38824        4.68661       -5.57890
H         -4.52388        9.00410       -4.28666
H         -5.11007        5.38189        0.12739
H         -6.05787        2.37278       -0.85457
H          0.03798       -2.30740        3.38693
H         -4.43630       -3.56661        1.44939
H          1.62829       -8.21405        5.76921
H          1.23486      -10.45675        6.20663
H          0.79012      -15.95131        6.69766
H         -3.07211      -14.44584        3.92069
H         -2.58501       -0.61487        4.54160
H          3.28971       -0.06993        1.53051
H          1.26382       -0.01625        2.88483
H          0.90278       -0.16898       -2.04522
H         -1.12370       -0.13417       -0.69886
H         -2.60069        0.77053        6.54469
H         -0.14771        3.68707        4.55362
H         -0.11384        2.29614        2.55164
H         -5.28045       -6.05112        1.20916
H         -5.51459       -6.97467       -1.03487
H         -1.06614       -6.92643        1.12326
H         -1.30973       -7.86778       -1.11154
H         -4.02925       -4.07664        4.72403
H         -5.80355       -4.50812        6.33342
H         -6.39095       -8.41809        4.64583
H         -4.62976       -7.98385        3.01933
H         -1.53381        4.25453        6.73307
H         -2.12836        2.88741        7.68288
H         -0.39269        3.13742        7.47954
H          3.37485       -0.59505       -2.17888
H          3.85247        0.92040       -1.41313
H          4.35543       -0.61548       -0.70699
H         -7.22685       -7.73425        7.11326
H         -7.41455       -5.99830        7.38977
H         -8.33849       -6.79938        6.11569
H         -4.42736       -7.67779       -3.18303
H         -2.68648       -7.98508       -3.24098
H         -3.77570       -9.19667       -2.56482

  eps=4.88617
  epsinf=4.88617
  RSolv=8.36
 
