%mem=1000MW
%nprocshared=40
#p wB97XD/6-31g** nosymm pop=esp opt td=(nstates=2,root=1) scf=(MaxCycle=20000) iop(3/107=0016000000,3/108=0016000000) SCRF=(PCM,Solvent=Generic,Read)

 Y6 opt-TDdft

0 1
C          0.07465        0.57693        0.04281
C          0.12736        0.40074        1.43010
C          1.26056        0.84544        2.13651
C          2.34906        1.44751        1.51507
C          2.28491        1.62069        0.13667
C          1.15793        1.19305       -0.58094
C         -0.81910       -0.22475        2.39066
C         -0.29022       -0.02769        3.72624
C          1.07576        0.56359        3.58195
C         -1.00951       -0.18978        4.91547
C         -0.68071       -0.11554        6.28813
S          0.95452       -0.00291        6.97731
C          0.31222       -0.13655        8.58965
C         -1.09816       -0.21359        8.58320
C         -1.68139       -0.20249        7.31410
S         -1.79789       -0.27568       10.21302
C         -0.18623       -0.18845       10.88224
C          0.82133       -0.11441        9.90170
N          2.06349       -0.07315       10.51331
C          1.84367       -0.08477       11.88809
C          0.44398       -0.20045       12.14079
C          2.75847        0.01687       12.98498
C          2.31125       -0.27295       14.30905
C          0.91578       -0.49632       14.56916
C         -0.03627       -0.39089       13.48181
N          4.10823        0.35594       13.01958
C          4.52795        0.22602       14.33318
C          3.44190       -0.16441       15.13985
C          5.71883        0.39844       15.06374
C          5.52543        0.13744       16.43814
S          3.85895       -0.33324       16.82832
C          6.66757        0.28122       17.22919
C          7.80171        0.66075       16.43427
S          7.36211        0.85947       14.72267
N         -1.30052       -0.55008       13.85863
S         -1.27674       -0.82112       15.49156
N          0.35615       -0.73751       15.75004
C          9.09873        0.77079       16.98683
C         10.33808        1.20021       16.49860
C         11.59266        1.15921       17.22590
C         12.57027        2.00783       16.49460
C         11.97661        2.45641       15.30049
C         10.58687        1.94266       15.22434
C         12.64648        3.24757       14.37382
C         13.95670        3.60858       14.66802
C         14.56185        3.17564       15.85708
C         13.89113        2.37359       16.77847
F         15.82596        3.54962       16.10866
F         14.65858        4.37762       13.81947
C         11.89001        0.39744       18.36605
C         13.11765        0.49343       19.08838
N         14.09182        0.53424       19.73103
O          9.80975        2.11863       14.29626
C          6.70789        0.06876       18.72115
C          4.83605        1.18484       12.04731
C          3.28880       -0.48803        9.81276
C         -3.16470       -0.27036        7.05248
O          1.88836        0.79574        4.46620
C         -1.96382       -0.95206        2.03210
C         -2.48529       -1.00867        0.70438
N         -2.96991       -1.08282       -0.35546
F          3.29892        2.20222       -0.52505
F          1.12940        1.38527       -1.90880
C         11.03961       -0.61777       18.90097
N         10.41806       -1.48376       19.37777
C         -2.70028       -1.78545        2.92846
N         -3.32985       -2.51177        3.59147
H         14.41844        2.07831       17.67172
H         12.17652        3.57673       13.45684
H          9.11128        0.46429       18.02450
H          7.27729       -0.82730       18.97791
H          5.70357       -0.05217       19.12601
H          7.16583        0.91906       19.23158
H          5.27227        2.03824       12.56454
H          4.14056        1.57277       11.31002
H          5.62594        0.61895       11.55510
H          3.04304       -1.28754        9.11530
H          3.99872       -0.88592       10.53100
H          3.73492        0.34228        9.26727
H         -3.43994       -1.21496        6.57826
H         -3.49212        0.54316        6.40089
H         -3.72757       -0.19266        7.98196
H         -2.06212       -0.39633        4.77293
H          3.21726        1.77445        2.07146
H         -0.75832        0.27184       -0.57105

  eps=3.36
  epsinf=3.36
  RSolv=7.28

