%mem=800MW
%nprocshared=64
#p wB97XD/6-31g** opt td=(triplet,nstates=2,root=1) pop=esp scf=(MaxCycle=20000) nosymm iop(3/107=0000600000,3/108=0000600000) SCRF=(PCM,Solvent=Generic,Read)

IEICO

0  1
C         12.35804       -0.76144        9.85300
C         12.72250        0.11550        8.82381
C         14.02646        0.04031        8.29655
C         14.96584       -0.87946        8.75093
C         14.59170       -1.75604        9.77723
C         13.30196       -1.68870       10.31891
C         14.18445        1.07417        7.24111
C         12.88951        1.79875        7.14806
C         11.97188        1.18954        8.10369
C         12.60972        2.88735        6.31933
C         13.32938        3.61458        5.34240
C         12.72173        4.69877        4.66123
C         13.53855        5.31607        3.72120
C         14.84399        4.73803        3.63321
S         14.98122        3.38828        4.76933
C         15.92612        5.11458        2.81338
C         17.21710        4.51356        2.78418
C         18.07522        5.11510        1.88071
C         17.49080        6.18698        1.17872
S         15.83794        6.46411        1.64456
C         18.40882        6.77577        0.27384
C         19.64098        6.03920        0.37386
C         19.51738        4.88585        1.40496
C         20.74147        6.41160       -0.36310
C         20.61913        7.52717       -1.23356
C         19.37845        8.24705       -1.35342
C         18.28342        7.88534       -0.60339
C         19.51163        9.42445       -2.35473
C         20.99394        9.27921       -2.73010
C         21.55829        8.16174       -2.08377
S         23.22686        7.91787       -2.51523
C         23.17435        9.34994       -3.58489
C         21.87822        9.94261       -3.56034
C         18.68494        9.23220       -3.65539
C         18.55071       10.29772       -4.56421
C         17.89480       10.12988       -5.78310
C         17.34335        8.88985       -6.15273
C         17.48125        7.82998       -5.24661
C         18.14198        7.99458       -4.02338
C         16.61754        8.72080       -7.47601
C         19.18480       10.74352       -1.60902
C         17.87715       11.25216       -1.58019
C         17.56545       12.40116       -0.84800
C         18.54379       13.08638       -0.11106
C         19.84897       12.56824       -0.13362
C         20.16344       11.41953       -0.86329
C         24.28295        9.79647       -4.32777
S         24.17009       11.21999       -5.37445
C         25.86010       11.08340       -5.85591
C         26.45600        9.95748       -5.23364
C         25.60333        9.24745       -4.39687
C         19.57352        3.47289        0.76277
C         19.36675        3.26901       -0.60799
C         19.32380        1.97931       -1.14921
C         19.47933        0.84257       -0.34364
C         19.67961        1.04999        1.03232
C         19.72363        2.33438        1.57472
C         20.58030        5.10046        2.51228
C         20.32359        5.92405        3.61939
C         21.30792        6.16896        4.57997
C         22.59142        5.61003        4.47164
C         22.84938        4.79870        3.35565
C         21.86639        4.55018        2.39404
C         26.61898       11.93606       -6.69017
C         26.33944       13.08102       -7.44083
C         24.99376       13.64842       -7.72349
C         25.18359       14.71213       -8.74582
C         26.55643       14.82961       -9.04014
C         27.31328       13.86430       -8.18770
C         26.96787       15.76737       -9.99470
C         25.99749       16.56132      -10.62405
C         24.63716       16.43745      -10.31515
C         24.21748       15.50111       -9.36139
O         25.88260        8.14926       -3.67335
C         27.20859        7.59110       -3.73234
O         23.92076       13.30758       -7.23642
C         28.70787       13.81074       -8.09535
C         29.43550       13.02447       -7.14544
N         30.10246       12.43131       -6.39199
C         18.20170       14.32419        0.70016
C         19.44971       -0.55908       -0.92764
C         23.66374        5.89439        5.50932
O         13.23704        6.35527        2.92230
C         11.92443        6.94148        3.00077
C         10.62440        1.49022        8.32864
C          9.80555        0.84510        9.30972
N          9.06487        0.37911       10.08302
O         15.20281        1.27887        6.58802
C         29.59936       14.58094       -8.90766
N         30.39558       15.16281       -9.53317
C          9.86040        2.46237        7.60697
N          9.16093        3.22660        7.06725
H         15.29963       -2.48539       10.15391
H         15.95754       -0.91162        8.31675
H         13.01933       -2.36799       11.11515
H         11.37853       -0.74842       10.30399
H         11.70538        4.99504        4.87141
H         11.91754        7.73567        2.25891
H         11.74853        7.36222        3.99282
H         11.15696        6.20429        2.75703
H         17.47948        3.68018        3.41746
H         19.23056        4.11211       -1.27272
H         19.16248        1.86578       -2.21660
H         19.79998        0.19820        1.69453
H         19.87963        2.44494        2.64070
H         19.35022        6.38147        3.74577
H         21.06537        6.80384        5.42648
H         22.10937        3.90882        1.55583
H         23.82801        4.34552        3.23167
H         21.18366       11.05660       -0.84590
H         20.63714       13.06678        0.42205
H         17.08965       10.76159       -2.13880
H         16.54351       12.76740       -0.85929
H         18.95786       11.27192       -4.32279
H         17.81461       10.97752       -6.45659
H         18.22881        7.14086       -3.36416
H         17.07106        6.85481       -5.48974
H         17.35012        8.42639       -0.67121
H         21.67990        5.88096       -0.28419
H         21.63663       10.82334       -4.13480
H         18.03147       14.06670        1.75165
H         17.29562       14.80824        0.32951
H         19.01150       15.05754        0.67188
H         15.65121        9.23652       -7.46070
H         16.42830        7.66890       -7.69872
H         17.19673        9.14190       -8.30269
H         27.49179        9.70551       -5.40331
H         26.31430       17.28550      -11.36594
H         28.00355       15.89727      -10.26668
H         23.17066       15.38724       -9.10801
H         23.91038       17.06648      -10.81629
H         27.19069        6.73034       -3.06898
H         27.94751        8.31301       -3.37897
H         27.44531        7.26928       -4.74851
H         19.00212       -0.56989       -1.92351
H         18.87600       -1.24033       -0.29351
H         20.46192       -0.96953       -1.01473
H         23.23540        5.98653        6.51043
H         24.17927        6.83571        5.28746
H         24.41789        5.10496        5.53484
H         11.61738        3.30046        6.42936
H         27.64269       11.59211       -6.74962
                                                   
  eps=4.9548                                       
  epsinf=4.9548                                    
  RSolv=8.20                                       
                                                   
 
