%mem=800MW
%nprocshared=64
#p wB97XD/6-31g** opt td=(nstates=2,root=1) pop=esp scf=(MaxCycle=20000) nosymm iop(3/107=0000600000,3/108=0000600000) SCRF=(PCM,Solvent=Generic,Read)

IEICO

0  1
C         12.35796       -0.76157        9.85281
C         12.72243        0.11541        8.82365
C         14.02639        0.04022        8.29639
C         14.96576       -0.87958        8.75072
C         14.59161       -1.75619        9.77700
C         13.30187       -1.68885       10.31868
C         14.18440        1.07411        7.24098
C         12.88947        1.79871        7.14796
C         11.97183        1.18946        8.10356
C         12.60970        2.88740        6.31933
C         13.32938        3.61466        5.34244
C         12.72176        4.69891        4.66134
C         13.53858        5.31621        3.72131
C         14.84400        4.73811        3.63326
S         14.98122        3.38833        4.76936
C         15.92612        5.11465        2.81343
C         17.21709        4.51361        2.78422
C         18.07523        5.11514        1.88076
C         17.49083        6.18703        1.17877
S         15.83797        6.46419        1.64463
C         18.40885        6.77580        0.27388
C         19.64099        6.03922        0.37392
C         19.51738        4.88587        1.40502
C         20.74150        6.41159       -0.36304
C         20.61917        7.52716       -1.23351
C         19.37850        8.24705       -1.35338
C         18.28346        7.88536       -0.60335
C         19.51169        9.42444       -2.35470
C         20.99400        9.27918       -2.73006
C         21.55834        8.16172       -2.08372
S         23.22692        7.91785       -2.51516
C         23.17441        9.34989       -3.58486
C         21.87829        9.94257       -3.56031
C         18.68501        9.23219       -3.65536
C         18.55083       10.29769       -4.56421
C         17.89492       10.12983       -5.78310
C         17.34341        8.88982       -6.15270
C         17.48126        7.82998       -5.24655
C         18.14199        7.99458       -4.02331
C         16.61758        8.72077       -7.47596
C         19.18488       10.74351       -1.60900
C         17.87723       11.25215       -1.58012
C         17.56554       12.40115       -0.84793
C         18.54391       13.08640       -0.11104
C         19.84909       12.56826       -0.13364
C         20.16354       11.41954       -0.86331
C         24.28300        9.79642       -4.32777
S         24.17006       11.21989       -5.37451
C         25.86010       11.08338       -5.85594
C         26.45604        9.95750       -5.23364
C         25.60341        9.24746       -4.39686
C         19.57351        3.47290        0.76284
C         19.36677        3.26902       -0.60792
C         19.32380        1.97931       -1.14913
C         19.47929        0.84257       -0.34355
C         19.67956        1.05000        1.03242
C         19.72359        2.33439        1.57481
C         20.58030        5.10049        2.51234
C         20.32356        5.92404        3.61947
C         21.30789        6.16897        4.58006
C         22.59141        5.61008        4.47171
C         22.84940        4.79878        3.35570
C         21.86640        4.55025        2.39409
C         26.61894       11.93604       -6.69022
C         26.33935       13.08096       -7.44092
C         24.99364       13.64827       -7.72367
C         25.18345       14.71199       -8.74599
C         26.55629       14.82957       -9.04022
C         27.31317       13.86429       -8.18777
C         26.96773       15.76739       -9.99474
C         25.99732       16.56127      -10.62413
C         24.63699       16.43730      -10.31531
C         24.21732       15.50090       -9.36160
O         25.88275        8.14930       -3.67332
C         27.20876        7.59120       -3.73232
O         23.92064       13.30736       -7.23666
C         28.70775       13.81080       -8.09539
C         29.43542       13.02450       -7.14553
N         30.10241       12.43136       -6.39208
C         18.20183       14.32421        0.70018
C         19.44965       -0.55907       -0.92754
C         23.66372        5.89444        5.50940
O         13.23709        6.35544        2.92246
C         11.92452        6.94171        3.00098
C         10.62434        1.49012        8.32846
C          9.80550        0.84504        9.30958
N          9.06483        0.37910       10.08292
O         15.20276        1.27882        6.58789
C         29.59922       14.58107       -8.90766
N         30.39542       15.16300       -9.53314
C          9.86032        2.46220        7.60672
N          9.16085        3.22638        7.06692
H         15.29953       -2.48557       10.15365
H         15.95746       -0.91173        8.31655
H         13.01923       -2.36817       11.11490
H         11.37845       -0.74855       10.30379
H         11.70543        4.99521        4.87154
H         11.91765        7.73592        2.25913
H         11.74865        7.36243        3.99304
H         11.15700        6.20456        2.75723
H         17.47947        3.68022        3.41750
H         19.23061        4.11212       -1.27266
H         19.16249        1.86578       -2.21652
H         19.79990        0.19821        1.69464
H         19.87957        2.44497        2.64078
H         19.35018        6.38143        3.74586
H         21.06532        6.80382        5.42658
H         22.10941        3.90892        1.55586
H         23.82804        4.34564        3.23171
H         21.18377       11.05663       -0.84595
H         20.63728       13.06681        0.42200
H         17.08971       10.76156       -2.13869
H         16.54360       12.76738       -0.85919
H         18.95801       11.27187       -4.32282
H         17.81476       10.97746       -6.45662
H         18.22878        7.14088       -3.36407
H         17.07103        6.85481       -5.48964
H         17.35017        8.42643       -0.67118
H         21.67992        5.88094       -0.28413
H         21.63669       10.82330       -4.13478
H         18.03165       14.06673        1.75167
H         17.29573       14.80825        0.32956
H         19.01162       15.05757        0.67186
H         15.65123        9.23645       -7.46063
H         16.42838        7.66887       -7.69869
H         17.19674        9.14191       -8.30265
H         27.49185        9.70556       -5.40330
H         26.31412       17.28550      -11.36598
H         28.00342       15.89738      -10.26665
H         23.17049       15.38695       -9.10828
H         23.91018       17.06628      -10.81649
H         27.19091        6.73046       -3.06895
H         27.94766        8.31315       -3.37900
H         27.44546        7.26937       -4.74849
H         19.00213       -0.56988       -1.92343
H         18.87586       -1.24029       -0.29344
H         20.46184       -0.96958       -1.01455
H         23.23539        5.98650        6.51052
H         24.17918        6.83581        5.28759
H         24.41792        5.10506        5.53487
H         11.61738        3.30054        6.42941
H         27.64267       11.59216       -6.74962
                                                   
  eps=4.9548                                       
  epsinf=4.9548                                    
  RSolv=8.20                                       
                                                   
 
