%mem=800MW
%nprocshared=64
#p wB97XD/6-31g** opt td=(triplet,nstates=2,root=1) pop=esp scf=(MaxCycle=20000) nosymm iop(3/107=0000600000,3/108=0000600000) SCRF=(PCM,Solvent=Generic,Read)

IEICO

0  1
C         12.34435       -0.76945        9.84892
C         12.70813        0.10802        8.81860
C         14.01422        0.03274        8.29287
C         14.95387       -0.88529        8.74940
C         14.57992       -1.76134        9.77676
C         13.28909       -1.69467       10.31660
C         14.17218        1.06402        7.23596
C         12.87568        1.78762        7.14065
C         11.95691        1.17702        8.09896
C         12.59787        2.87151        6.31346
C         13.32172        3.60314        5.33406
C         12.71751        4.68113        4.65416
C         13.54318        5.30202        3.71285
C         14.83878        4.72580        3.63420
S         14.97433        3.38058        4.76584
C         15.93513        5.10372        2.81291
C         17.21877        4.51092        2.78994
C         18.08026        5.11779        1.88329
C         17.49201        6.18161        1.18273
S         15.84126        6.44828        1.64616
C         18.40987        6.77640        0.27626
C         19.64301        6.04475        0.37833
C         19.52308        4.89366        1.41112
C         20.74313        6.42055       -0.35939
C         20.61574        7.53322       -1.22837
C         19.37481        8.24898       -1.34940
C         18.27964        7.88334       -0.59950
C         19.50558        9.42640       -2.34977
C         20.98755        9.28478       -2.72303
C         21.55439        8.17314       -2.08164
S         23.21784        7.93521       -2.51580
C         23.16091        9.36396       -3.58075
C         21.87559        9.95276       -3.55758
C         18.68224        9.23099       -3.65206
C         18.54342       10.29703       -4.55953
C         17.89088       10.12667       -5.77987
C         17.34792        8.88373       -6.15225
C         17.49072        7.82333       -5.24737
C         18.14814        7.99024       -4.02281
C         16.62630        8.71195       -7.47740
C         19.17362       10.74344       -1.60298
C         17.86483       11.24920       -1.57650
C         17.54961       12.39693       -0.84390
C         18.52534       13.08344       -0.10458
C         19.83165       12.56793       -0.12493
C         20.14974       11.42042       -0.85480
C         24.28454        9.80980       -4.32738
S         24.17960       11.23878       -5.35438
C         25.86204       11.08794       -5.85279
C         26.44877        9.96037       -5.24210
C         25.58803        9.25044       -4.39987
C         19.58562        3.47941        0.77249
C         19.37654        3.27095       -0.59731
C         19.34066        1.97975       -1.13514
C         19.50535        0.84606       -0.32694
C         19.70679        1.05817        1.04811
C         19.74397        2.34410        1.58731
C         20.58410        5.11726        2.51846
C         20.32174        5.94339        3.62236
C         21.30375        6.19625        4.58324
C         22.59010        5.64328        4.47804
C         22.85341        4.82941        3.36504
C         21.87287        4.57275        2.40321
C         26.62509       11.93370       -6.70149
C         26.35675       13.07888       -7.44482
C         25.02089       13.69627       -7.66696
C         25.20525       14.76082       -8.68753
C         26.56865       14.82952       -9.04155
C         27.32732       13.83432       -8.23165
C         26.96938       15.75715      -10.01202
C         26.00172       16.59095      -10.59154
C         24.65297       16.51723      -10.22057
C         24.24260       15.58932       -9.25423
O         25.86682        8.14316       -3.68383
C         27.18873        7.57930       -3.75440
O         23.95886       13.38954       -7.13501
C         28.72273       13.72822       -8.20535
C         29.46536       12.89137       -7.31320
N         30.14553       12.25101       -6.61128
C         18.17943       14.32001        0.70680
C         19.48406       -0.55719       -0.90726
C         23.65991        5.93636        5.51579
O         13.23901        6.34373        2.91336
C         11.92566        6.92621        2.99080
C         10.60769        1.47862        8.32177
C          9.78924        0.83878        9.30563
N          9.04929        0.37609       10.08227
O         15.19025        1.26931        6.58253
C         29.60419       14.48809       -9.03739
N         30.39283       15.06108       -9.68113
C          9.84437        2.44620        7.59487
N          9.14598        3.20817        7.04951
H         15.28828       -2.48940       10.15518
H         15.94600       -0.91690        8.31605
H         13.00645       -2.37358       11.11329
H         11.36411       -0.75730       10.29844
H         11.70021        4.97816        4.85896
H         11.91768        7.72175        2.25017
H         11.74602        7.34588        3.98280
H         11.15911        6.18872        2.74435
H         17.48528        3.67990        3.42451
H         19.23303        4.11125       -1.26410
H         19.17777        1.86249       -2.20185
H         19.83364        0.20887        1.71224
H         19.90102        2.45830        2.65270
H         19.34591        6.39647        3.74569
H         21.05719        6.83274        5.42734
H         22.11999        3.92963        1.56758
H         23.83435        4.38061        3.24375
H         21.17057       11.05920       -0.83572
H         20.61770       13.06766        0.43260
H         17.07944       10.75759       -2.13716
H         16.52704       12.76124       -0.85687
H         18.94410       11.27335       -4.31594
H         17.80674       10.97469       -6.45236
H         18.23930        7.13589       -3.36493
H         17.08708        6.84601       -5.49268
H         17.34466        8.42114       -0.66806
H         21.68324        5.89326       -0.27976
H         21.63052       10.83273       -4.13166
H         18.00844       14.06145        1.75788
H         17.27278       14.80223        0.33523
H         18.98770       15.05504        0.67995
H         15.66007        9.22786       -7.46624
H         16.43779        7.65963       -7.69862
H         17.20831        9.13138       -8.30296
H         27.48084        9.69724       -5.41784
H         26.31139       17.30763      -11.34376
H         27.99482       15.84903      -10.33369
H         23.20496       15.51178       -8.95349
H         23.92834       17.17770      -10.68288
H         27.17056        6.71334       -3.09755
H         27.93437        8.29374       -3.39934
H         27.41986        7.26298       -4.77377
H         19.03592       -0.57351       -1.90277
H         18.91508       -1.24026       -0.27087
H         20.49879       -0.96139       -0.99384
H         23.22976        6.03246        6.51570
H         24.17285        6.87807        5.28964
H         24.41641        5.14940        5.54652
H         11.60477        3.28447        6.41920
H         27.64082       11.56944       -6.77503
                                                   
  eps=4.9548                                       
  epsinf=4.9548                                    
  RSolv=8.20                                       
                                                   
 
