%mem=1000MW
%nprocshared=40
#p wB97XD/6-31g** td=(triplet,nstates=2) nosymm pop=esp scf=(MaxCycle=20000) iop(3/107=0001100000,3/108=0001100000) SCRF=(PCM,Solvent=Generic,Read)

 IT-4Cl 

0 1
C              -0.1675600000     -0.1098900000     -0.1915300000
C              -0.1044900000     -0.0560300000      1.2084900000
C               1.1661700000     -0.0520900000      1.8069500000
C               2.3264100000     -0.0809100000      1.0307300000
C               2.2678500000     -0.1185500000     -0.3721700000
C               0.9960300000     -0.1356200000     -0.9647000000
C              -1.3895200000     -0.1248800000      2.0743600000
C              -2.6580600000      0.2806100000      1.3151100000
C              -3.5333500000     -0.8221900000      1.1870100000
C              -2.9753800000     -1.9900000000      1.7761800000
C              -1.7056400000     -1.6201300000      2.3281700000
S              -5.0301300000     -0.4604200000      0.3695400000
C              -4.4984800000      1.2073000000      0.1916100000
C              -3.2114000000      1.4315000000      0.7559700000
C              -5.0873300000      2.3389800000     -0.3830900000
C              -4.2596400000      3.4583600000     -0.2892400000
S              -2.7497300000      3.1049900000      0.5523000000
C              -0.9235300000     -2.5625200000      2.9666100000
C              -1.4242200000     -3.8766000000      3.0592200000
C              -2.6979200000     -4.2461900000      2.5189400000
C              -3.4752900000     -3.3111100000      1.8712200000
C              -0.8607400000     -5.0580900000      3.6483500000
C              -1.7059100000     -6.1534800000      3.4830800000
C              -2.9931500000     -5.7504700000      2.7520500000
S               0.6164500000     -5.3982600000      4.5152700000
C               0.1027400000     -7.0711100000      4.6700600000
C              -1.1569700000     -7.3124100000      4.0758000000
S              -1.6304400000     -8.9762600000      4.2486600000
C              -0.1340900000     -9.3424700000      5.1282600000
C               0.6757000000     -8.2009000000      5.2593100000
C              -4.5963500000      4.8424000000     -0.6586600000
C              -4.3214300000      5.4637300000     -1.8513000000
C              -3.5917000000      4.7681300000     -2.9779100000
C              -3.4476000000      5.7747800000     -4.0587200000
C              -4.0623300000      6.9774700000     -3.6384200000
C              -4.6151600000      6.8157400000     -2.2830900000
C              -2.8463000000      5.6250000000     -5.2968400000
C              -2.8430100000      6.7146600000     -6.1810800000
C              -3.4552900000      7.9188400000     -5.7867800000
C              -4.0648100000      8.0599500000     -4.5307100000
Cl             -2.0759300000      6.5249000000     -7.7509700000
Cl             -3.4858200000      9.3090800000     -6.8603000000
O              -3.1999800000      3.6099400000     -2.9990200000
C              -5.3172000000      7.8202900000     -1.5497900000
C              -5.4456700000      9.1714200000     -1.9714000000
N              -5.5796500000     10.2995300000     -2.2600600000
C              -1.3325800000      0.7136800000      3.3805500000
C              -0.6628900000      1.9477400000      3.4165400000
C              -0.6799400000      2.7414800000      4.5644700000
C              -1.3707000000      2.3423200000      5.7211800000
C              -2.0492600000      1.1152800000      5.6759600000
C              -2.0360500000      0.3181400000      4.5279700000
C              -3.1556300000     -6.4255200000      1.3654200000
C              -4.4003000000     -6.4437200000      0.7156100000
C              -4.5345500000     -6.9747600000     -0.5688800000
C              -3.4335500000     -7.5064100000     -1.2598600000
C              -2.1889000000     -7.4731300000     -0.6124000000
C              -2.0501800000     -6.9400800000      0.6718000000
C              -4.1846700000     -5.9877500000      3.7223000000
C              -4.8709500000     -7.2134200000      3.7396500000
C              -5.8832300000     -7.4591900000      4.6691500000
C              -6.2512300000     -6.4970200000      5.6240000000
C              -5.5558000000     -5.2787100000      5.6106200000
C              -4.5405900000     -5.0297600000      4.6829400000
C               0.2830200000    -10.5824700000      5.7078800000
C              -0.2333500000    -11.8590800000      5.7445500000
C              -1.4203100000    -12.3664600000      4.9969600000
C              -1.3821300000    -13.8481400000      5.1133900000
C              -0.2949000000    -14.2326200000      5.9176100000
C               0.3855300000    -13.0105800000      6.4263300000
C              -0.0429600000    -15.5931700000      6.1154500000
C              -0.8927300000    -16.5366100000      5.5221700000
C              -1.9954500000    -16.1325100000      4.7366200000
C              -2.2384100000    -14.7709100000      4.5276200000
C              -3.5888900000     -8.1196400000     -2.6403200000
C              -7.3660400000     -6.7688900000      6.6184100000
O              -2.2537100000    -11.7155900000      4.3838300000
C               1.3371900000    -12.9880700000      7.4314100000
C               1.8823800000    -14.1631900000      8.0473100000
N               2.3735700000    -15.0698900000      8.5910800000
Cl             -0.5424500000    -18.2283200000      5.7844200000
Cl             -3.0726200000    -17.2956100000      4.0049300000
C              -1.3615800000      3.2019300000      6.9725500000
C               3.5313000000     -0.1080500000     -1.2139600000
C               1.8569000000    -11.7927500000      8.0319900000
N               2.3094400000    -10.8687900000      8.5807400000
C              -5.9760000000      7.5899700000     -0.3124800000
N              -6.5449900000      7.4602900000      0.7047200000
H              -2.3882400000      4.6866100000     -5.5789000000
H              -4.5238800000      9.0041000000     -4.2866600000
H              -5.1100700000      5.3818900000      0.1273900000
H              -6.0578700000      2.3727800000     -0.8545700000
H               0.0379800000     -2.3074000000      3.3869300000
H              -4.4363000000     -3.5666100000      1.4493900000
H               1.6282900000     -8.2140500000      5.7692100000
H               1.2348600000    -10.4567500000      6.2066300000
H               0.7901200000    -15.9513100000      6.6976600000
H              -3.0721100000    -14.4458400000      3.9206900000
H              -2.5850100000     -0.6148700000      4.5416000000
H               3.2897100000     -0.0699300000      1.5305100000
H               1.2638200000     -0.0162500000      2.8848300000
H               0.9027800000     -0.1689800000     -2.0452200000
H              -1.1237000000     -0.1341700000     -0.6988600000
H              -2.6006900000      0.7705300000      6.5446900000
H              -0.1477100000      3.6870700000      4.5536200000
H              -0.1138400000      2.2961400000      2.5516400000
H              -5.2804500000     -6.0511200000      1.2091600000
H              -5.5145900000     -6.9746700000     -1.0348700000
H              -1.0661400000     -6.9264300000      1.1232600000
H              -1.3097300000     -7.8677800000     -1.1115400000
H              -4.0292500000     -4.0766400000      4.7240300000
H              -5.8035500000     -4.5081200000      6.3334200000
H              -6.3909500000     -8.4180900000      4.6458300000
H              -4.6297600000     -7.9838500000      3.0193300000
H              -1.5338100000      4.2545300000      6.7330700000
H              -2.1283600000      2.8874100000      7.6828800000
H              -0.3926900000      3.1374200000      7.4795400000
H               3.3748500000     -0.5950500000     -2.1788800000
H               3.8524700000      0.9204000000     -1.4131300000
H               4.3554300000     -0.6154800000     -0.7069900000
H              -7.2268500000     -7.7342500000      7.1132600000
H              -7.4145500000     -5.9983000000      7.3897700000
H              -8.3384900000     -6.7993800000      6.1156900000
H              -4.4273600000     -7.6777900000     -3.1830300000
H              -2.6864800000     -7.9850800000     -3.2409800000
H              -3.7757000000     -9.1966700000     -2.5648200000

  eps=4.88617
  epsinf=4.88617
  RSolv=8.36
 

