%mem=1000MW
%nprocshared=40
#p wB97XD/6-31g** nosymm pop=esp opt td=(nstates=2,root=1) scf=(MaxCycle=20000) iop(3/107=0016000000,3/108=0016000000) SCRF=(PCM,Solvent=Generic,Read)

 Y6 opt-TDdft

0 1
C               0.0000000000      0.0000000000      0.0000000000
C               0.0000000000      0.0000000000      1.3965880000
C               1.2176200000      0.0000000000      2.0797450000
C               2.4455830000     -0.0015380000      1.4390370000
C               2.4357670000     -0.0016710000      0.0570860000
C               1.2254010000     -0.0005890000     -0.6452740000
C              -1.1080430000     -0.0008350000      2.3890340000
C              -0.4930160000      0.0056910000      3.7247450000
C               0.9739550000      0.0012440000      3.5392250000
C              -1.1633740000      0.0205150000      4.9196620000
C              -0.7724430000      0.0304300000      6.2862710000
S               0.8836470000      0.0224040000      6.9155630000
C               0.2881230000      0.0353420000      8.5271910000
C              -1.1029110000      0.0495320000      8.5802650000
C              -1.7245780000      0.0488450000      7.3195190000
S              -1.7478930000      0.0779610000     10.2156980000
C              -0.1208090000      0.0638260000     10.8272030000
C               0.8427080000      0.0501920000      9.8294410000
N               2.1011630000      0.0062700000     10.3906410000
C               1.9328610000      0.0065930000     11.7643520000
C               0.5572260000      0.0134670000     12.0640210000
C               2.8968190000     -0.0140020000     12.8294840000
C               2.4760250000     -0.2574190000     14.1507890000
C               1.0801280000     -0.3408100000     14.4624110000
C               0.1099940000     -0.1427180000     13.4161110000
N               4.2668340000      0.1803330000     12.8146150000
C               4.7117400000      0.0218930000     14.1100250000
C               3.6407760000     -0.2544370000     14.9475850000
C               5.9447960000      0.1053020000     14.7988750000
C               5.7685010000     -0.1276580000     16.1631250000
S               4.0966770000     -0.4414480000     16.6135400000
C               6.9587820000     -0.0820580000     16.9040640000
C               8.0604660000      0.2006940000     16.0788270000
S               7.5875300000      0.3962940000     14.3860880000
N              -1.1424580000     -0.1879710000     13.8358350000
S              -1.0829410000     -0.4611850000     15.4533570000
N               0.5448720000     -0.5294840000     15.6560600000
C               9.3645780000      0.2840020000     16.6319970000
C              10.3913930000      1.1872600000     16.5506490000
C              11.6975060000      1.0726730000     17.2115510000
C              12.4710380000      2.2947990000     16.8638950000
C              11.6904000000      3.1034120000     16.0346720000
C              10.3787660000      2.4590400000     15.7981180000
C              12.1273280000      4.3186340000     15.5339930000
C              13.4002440000      4.7255730000     15.8873060000
C              14.1968220000      3.9285240000     16.7165770000
C              13.7558390000      2.7139380000     17.2148860000
F              15.4143400000      4.3662960000     17.0256850000
F              13.8947390000      5.8792810000     15.4482370000
C              12.1694760000      0.0541280000     17.9992660000
C              13.4741640000      0.0592760000     18.5871990000
N              14.5253380000      0.0349710000     19.0776910000
O               9.4823730000      2.9161180000     15.1125570000
C               7.0257540000     -0.3108660000     18.3865330000
C               5.0522200000      0.8840240000     11.8118720000
C               3.2630440000     -0.4436980000      9.6390020000
C              -3.2187580000      0.0735350000      7.1911450000
O               1.8403200000     -0.0002230000      4.3943660000
C              -2.4387140000     -0.0106640000      2.0592670000
C              -2.9117920000     -0.0174380000      0.7087050000
N              -3.3285430000     -0.0227900000     -0.3740630000
F               3.5717490000     -0.0025270000     -0.6340900000
F               1.2715910000      0.0003970000     -1.9745640000
C              11.4221490000     -1.1229480000     18.3189200000
N              10.8372650000     -2.0874730000     18.5938400000
C              -3.5018470000     -0.0170070000      3.0160870000
N              -4.3844030000     -0.0221380000      3.7699180000
H              14.4258850000      2.1499940000     17.8490750000
H              11.4999350000      4.9263970000     14.8923970000
H               9.5627030000     -0.5786910000     17.2557110000
H               7.6743740000     -1.1554950000     18.6356850000
H               6.0332770000     -0.5231100000     18.7883430000
H               7.4201520000      0.5628160000     18.9131320000
H               5.7036490000      1.6029130000     12.3132160000
H               4.3876670000      1.4415030000     11.1523020000
H               5.6697150000      0.2018360000     11.2225650000
H               2.9321020000     -1.1187600000      8.8470900000
H               3.9290720000     -1.0033260000     10.2953700000
H               3.8059040000      0.3893160000      9.1857900000
H              -3.5899120000     -0.0089480000      6.1701260000
H              -3.6079510000      1.0057400000      7.6135480000
H              -3.6502510000     -0.7506870000      7.7679700000
H              -2.2413330000      0.0287960000      4.8362680000
H               3.3750950000     -0.0035330000      1.9963760000
H              -0.8949390000      0.0022460000     -0.6068100000

  eps=3.36
  epsinf=3.36
  RSolv=7.28

