%mem=800MW
%nprocshared=64
%chk=IT-2F-HSO-w-0003-T1paraS1.chk
%rwf=IT-2F-HSO-w-0003-T1paraS1.rwf
#p wB97XD/6-31g** td(50-50,nstates=5) 6D 10F nosymm GFInput scf=(MaxCycle=20000) iop(3/107=0003000000,3/108=0003000000) SCRF=(PCM,Solvent=Generic,Read)

IT-2F

0  1
C              -4.9979100000     15.4478600000     -0.7126600000
C              -4.7780500000     14.1029600000     -0.4022500000
C              -4.4029800000     13.7470100000      0.9084500000
C              -4.2544300000     14.6911800000      1.9209200000
C              -4.4739300000     16.0385400000      1.6217800000
C              -4.8338600000     16.3799700000      0.3161500000
C              -4.1974300000     12.2792000000      0.9777600000
C              -4.4147000000     11.7534500000     -0.4016600000
C              -4.8764900000     12.8619000000     -1.2261600000
C              -4.1077400000     10.4742600000     -0.8653900000
C              -3.7022000000      9.2642100000     -0.2558600000
S              -3.5337500000      8.8915800000      1.4745300000
C              -3.1095800000      7.2317200000      1.1127300000
C              -3.0832900000      7.0107000000     -0.2982100000
C              -3.4112500000      8.1195000000     -1.0539900000
C              -2.7759600000      6.0964200000      1.8453000000
C              -2.4942400000      4.9943400000      0.9993700000
S              -2.6377500000      5.3543400000     -0.7120500000
C              -2.1681500000      3.8412500000      1.7444900000
C              -2.2836900000      4.1834500000      3.1408100000
C              -2.6643700000      5.6784000000      3.3182700000
C              -1.7835700000      2.5349500000      1.3323100000
C              -1.5333900000      1.5984700000      2.3040100000
C              -1.6717300000      1.9334100000      3.7004800000
C              -2.0452100000      3.2435400000      4.1125800000
C              -1.0659300000      0.1288400000      2.1261400000
C              -1.0220200000     -0.3097200000      3.5960200000
C              -1.3832100000      0.7687200000      4.4433800000
S              -1.4011600000      0.3563400000      6.1494400000
C              -0.9290100000     -1.2921600000      5.7289600000
C              -0.7707200000     -1.4697800000      4.3208100000
S              -0.2990900000     -3.1138600000      3.9475100000
C              -0.3357600000     -3.5542300000      5.6697000000
C              -0.6921500000     -2.4306300000      6.4743400000
C               0.3338600000      0.1681700000      1.4582900000
C               0.4627100000      0.2526600000      0.0623000000
C               1.7150700000      0.3911300000     -0.5392000000
C               2.8912300000      0.4536200000      0.2254400000
C               2.7578900000      0.3745900000      1.6199600000
C               1.5060800000      0.2387400000      2.2250100000
C               4.2556000000      0.5774500000     -0.4289800000
C              -2.1032400000     -0.7586100000      1.3894100000
C              -1.7153200000     -1.9349100000      0.7287700000
C              -2.6618400000     -2.7811100000      0.1468300000
C              -4.0346800000     -2.4940100000      0.2063800000
C              -4.4195900000     -1.3228000000      0.8775000000
C              -3.4757100000     -0.4734500000      1.4594400000
C              -0.0955800000     -4.8113700000      6.2729400000
C               0.2520900000     -6.0791700000      5.8031500000
C               0.5715900000     -6.4374500000      4.3912900000
C               0.9538700000     -7.8683500000      4.3870100000
C               0.8644000000     -8.3768000000      5.6972800000
C               0.4117700000     -7.2824400000      6.6106600000
C               1.1747100000     -9.7202300000      5.9307900000
C               1.5668500000    -10.4907600000      4.8322200000
C               1.6615800000     -9.9951600000      3.5299800000
C               1.3457700000     -8.6529800000      3.3056800000
C              -4.0517100000      5.8790000000      3.9841100000
C              -4.3834200000      7.0886700000      4.6169300000
C              -5.6544700000      7.2955400000      5.1544700000
C              -6.6513700000      6.3086700000      5.0776400000
C              -6.3220800000      5.1089500000      4.4301800000
C              -5.0500400000      4.8986300000      3.8898200000
C              -1.4958800000      6.3742300000      4.0644100000
C              -1.4364400000      6.3746100000      5.4677900000
C              -0.3444200000      6.9228000000      6.1430300000
C               0.7362000000      7.4901600000      5.4485100000
C               0.6799000000      7.4748000000      4.0467000000
C              -0.4104800000      6.9248800000      3.3677900000
O               0.5388000000     -5.7028900000      3.4110100000
C               0.1783500000     -7.4487700000      7.9783900000
C              -0.3220300000     -6.4398400000      8.8622500000
N              -0.7326500000     -5.6814400000      9.6495200000
F               1.8697600000    -11.7888000000      5.0486800000
C              -5.0577700000     -3.4072800000     -0.4448200000
C              -8.0250600000      6.5415600000      5.6809100000
C               1.9027600000      8.1238400000      6.1849800000
C              -5.4064700000     12.8034000000     -2.5162900000
C              -5.6801900000     11.5916700000     -3.2289600000
N              -5.9513600000     10.6508600000     -3.8647800000
O              -3.8883700000     11.6431600000      1.9780200000
H              -4.3680700000     16.8117900000      2.3712900000
C               0.3994300000     -8.6715300000      8.6889400000
N               0.5565200000     -9.6241700000      9.3451300000
C              -5.8032500000     13.9509900000     -3.2739100000
N              -6.1405100000     14.8367400000     -3.9552500000
H              -3.9726700000     14.3866200000      2.9208700000
H              -5.2733800000     15.8022100000     -1.6929100000
H              -4.1679600000     10.3543500000     -1.9390400000
H              -3.4602800000      8.1437000000     -2.1331100000
H              -2.1389900000      3.4792100000      5.1628700000
H              -1.6931500000      2.2985700000      0.2818100000
H              -0.7735700000     -2.4974700000      7.5495300000
H              -0.2207400000     -4.7390800000      7.3438600000
H               1.1292700000    -10.1915000000      6.8987300000
H               1.4050800000     -8.2287000000      2.3115200000
H              -4.8480200000      3.9572100000      3.3948100000
H              -0.3398700000      6.9079200000      7.2284300000
H              -2.2479600000      5.9538700000      6.0481700000
H               1.4963200000      7.8968400000      3.4694000000
H              -0.4000000000      6.9274400000      2.2851100000
H              -7.0643000000      4.3219100000      4.3428000000
H              -5.8680800000      8.2420200000      5.6407700000
H              -3.6461000000      7.8755900000      4.7070600000
H              -0.4148400000      0.2045300000     -0.5703400000
H               1.7720700000      0.4516200000     -1.6214800000
H               1.4554300000      0.1947300000      3.3055000000
H               3.6404600000      0.4215900000      2.2500500000
H              -3.8246000000      0.4130300000      1.9741900000
H              -5.4715400000     -1.0668600000      0.9551100000
H              -2.3191700000     -3.6804100000     -0.3548400000
H              -0.6685500000     -2.2002800000      0.6588900000
H              -8.4803500000      7.4527300000      5.2812500000
H              -8.7026300000      5.7107900000      5.4757900000
H              -7.9600200000      6.6612400000      6.7672500000
H               2.8314500000      8.0377300000      5.6161000000
H               1.7200000000      9.1907900000      6.3549600000
H               2.0602100000      7.6590300000      7.1609900000
H              -4.7835000000     -4.4589100000     -0.3301300000
H              -6.0506500000     -3.2690800000     -0.0116100000
H              -5.1350400000     -3.2044300000     -1.5188200000
H               4.1868000000      1.0461200000     -1.4130800000
H               4.9379600000      1.1729500000      0.1823400000
H               4.7132700000     -0.4088700000     -0.5647300000
H               1.9731300000    -10.6491600000      2.7261300000
F              -5.0354700000     17.6829400000      0.0256500000
                                                   
  eps=4.35875                                      
  epsinf=4.35875                                   
  RSolv=8.17                                       
                                                   

