%mem=800MW
%nprocshared=64
%chk=IT-2F-HSO-w-0003-T2paraS1.chk
%rwf=IT-2F-HSO-w-0003-T2paraS1.rwf
#p wB97XD/6-31g** td(50-50,nstates=5) 6D 10F nosymm GFInput scf=(MaxCycle=20000) iop(3/107=0003000000,3/108=0003000000) SCRF=(PCM,Solvent=Generic,Read)

IT-2F

0  1
C              -5.0281000000     15.4635900000     -0.6927100000
C              -4.7787200000     14.1203800000     -0.3962600000
C              -4.3929300000     13.7629600000      0.9123200000
C              -4.2576700000     14.7016600000      1.9315700000
C              -4.5022800000     16.0475100000      1.6445100000
C              -4.8765200000     16.3903300000      0.3432700000
C              -4.1731800000     12.2993300000      0.9713900000
C              -4.3928200000     11.7780700000     -0.4168500000
C              -4.8546600000     12.8874300000     -1.2297800000
C              -4.0848600000     10.4971600000     -0.8827900000
C              -3.6863700000      9.2833900000     -0.2726400000
S              -3.5222800000      8.9049900000      1.4565800000
C              -3.1062500000      7.2453800000      1.0918400000
C              -3.0787000000      7.0247100000     -0.3101400000
C              -3.4005100000      8.1394000000     -1.0711100000
C              -2.7722700000      6.0961200000      1.8288200000
C              -2.4984300000      5.0152400000      0.9877800000
S              -2.6388400000      5.3674100000     -0.7168100000
C              -2.1728300000      3.8327000000      1.7485600000
C              -2.2917200000      4.1792300000      3.1231800000
C              -2.6679800000      5.6742200000      3.3019800000
C              -1.7937400000      2.5428400000      1.3368300000
C              -1.5460000000      1.5964500000      2.3192600000
C              -1.6840800000      1.9368500000      3.6938900000
C              -2.0512600000      3.2305100000      4.1056700000
C              -1.0784400000      0.1280000000      2.1401600000
C              -1.0261600000     -0.3099900000      3.6106200000
C              -1.3832700000      0.7455700000      4.4526900000
S              -1.4056000000      0.3413000000      6.1515200000
C              -0.9266700000     -1.3047800000      5.7391500000
C              -0.7682700000     -1.4826600000      4.3403800000
S              -0.2902900000     -3.1221700000      3.9646200000
C              -0.3229900000     -3.5658100000      5.6856200000
C              -0.6833500000     -2.4461900000      6.4900800000
C               0.3171200000      0.1687600000      1.4627300000
C               0.4364500000      0.2516600000      0.0657900000
C               1.6845100000      0.3907500000     -0.5448500000
C               2.8658800000      0.4553600000      0.2111500000
C               2.7422700000      0.3774700000      1.6067400000
C               1.4950200000      0.2407200000      2.2207900000
C               4.2256600000      0.5796600000     -0.4527500000
C              -2.1179800000     -0.7601600000      1.4069400000
C              -1.7318000000     -1.9406000000      0.7528500000
C              -2.6791600000     -2.7878800000      0.1735400000
C              -4.0513400000     -2.4973100000      0.2288600000
C              -4.4346000000     -1.3214000000      0.8927300000
C              -3.4898200000     -0.4709600000      1.4717500000
C              -0.0770800000     -4.8237700000      6.2895400000
C               0.2726100000     -6.0919600000      5.8180100000
C               0.5974200000     -6.4453700000      4.3988900000
C               0.9812200000     -7.8734600000      4.3907500000
C               0.8876500000     -8.3846000000      5.7011800000
C               0.4348200000     -7.2956100000      6.6155200000
C               1.1940600000     -9.7301500000      5.9296700000
C               1.5874000000    -10.4975300000      4.8290500000
C               1.6873100000     -9.9991200000      3.5281200000
C               1.3740400000     -8.6555600000      3.3079300000
C              -4.0558700000      5.8778300000      3.9661200000
C              -4.3860900000      7.0894800000      4.5957800000
C              -5.6569900000      7.2997100000      5.1326700000
C              -6.6551600000      6.3140100000      5.0587100000
C              -6.3272000000      5.1119300000      4.4149800000
C              -5.0552500000      4.8982300000      3.8755700000
C              -1.5001700000      6.3641100000      4.0555300000
C              -1.4453200000      6.3563800000      5.4591000000
C              -0.3550100000      6.8994900000      6.1415000000
C               0.7283400000      7.4699600000      5.4541900000
C               0.6764600000      7.4633800000      4.0520200000
C              -0.4121400000      6.9188400000      3.3661000000
O               0.5632500000     -5.7030100000      3.4260200000
C               0.2014600000     -7.4627400000      7.9913400000
C              -0.3165800000     -6.4626500000      8.8717700000
N              -0.7421100000     -5.7103700000      9.6580800000
F               1.8861700000    -11.7969400000      5.0424700000
C              -5.0755900000     -3.4112500000     -0.4197500000
C              -8.0285300000      6.5500900000      5.6616500000
C               1.8931000000      8.0985000000      6.1979600000
C              -5.3628000000     12.8329200000     -2.5383700000
C              -5.6383100000     11.6262000000     -3.2542900000
N              -5.9096900000     10.6879600000     -3.8952300000
O              -3.8574100000     11.6545100000      1.9624600000
H              -4.4067500000     16.8170900000      2.3990100000
C               0.4438600000     -8.6788500000      8.7024800000
N               0.6202900000     -9.6287200000      9.3589400000
C              -5.7263300000     13.9836800000     -3.3037100000
N              -6.0330200000     14.8755200000     -3.9928200000
H              -3.9669300000     14.3939400000      2.9280400000
H              -5.3196500000     15.8206600000     -1.6673600000
H              -4.1417900000     10.3796300000     -1.9566400000
H              -3.4472800000      8.1634800000     -2.1502500000
H              -2.1458100000      3.4701800000      5.1550300000
H              -1.7004900000      2.3028600000      0.2873500000
H              -0.7645200000     -2.5121500000      7.5652900000
H              -0.2006700000     -4.7525800000      7.3605600000
H               1.1440900000    -10.2051300000      6.8956400000
H               1.4358600000     -8.2282500000      2.3151600000
H              -4.8539400000      3.9551800000      3.3833900000
H              -0.3542900000      6.8780500000      7.2268300000
H              -2.2596600000      5.9335700000      6.0340700000
H               1.4949700000      7.8887600000      3.4801300000
H              -0.3984700000      6.9284200000      2.2835500000
H              -7.0702900000      4.3253800000      4.3302400000
H              -5.8693300000      8.2478600000      5.6163700000
H              -3.6475100000      7.8755000000      4.6840100000
H              -0.4454900000      0.2011900000     -0.5605500000
H               1.7335800000      0.4499800000     -1.6276300000
H               1.4523200000      0.1976400000      3.3016100000
H               3.6293500000      0.4256200000      2.2304400000
H              -3.8372000000      0.4193600000      1.9808600000
H              -5.4860900000     -1.0622500000      0.9664300000
H              -2.3375200000     -3.6905200000     -0.3228600000
H              -0.6854000000     -2.2083500000      0.6858000000
H              -8.4820100000      7.4619900000      5.2616000000
H              -8.7078100000      5.7206300000      5.4567200000
H              -7.9636100000      6.6700000000      6.7479900000
H               2.8248100000      8.0087800000      5.6345300000
H               1.7138700000      9.1661400000      6.3673900000
H               2.0430100000      7.6325600000      7.1746300000
H              -4.8004400000     -4.4627400000     -0.3060000000
H              -6.0674000000     -3.2737500000      0.0162100000
H              -5.1561600000     -3.2083000000     -1.4935100000
H               4.1497100000      1.0468900000     -1.4370300000
H               4.9114900000      1.1767800000      0.1531000000
H               4.6835800000     -0.4063200000     -0.5902500000
H               1.9997400000    -10.6512800000      2.7232300000
F              -5.1067600000     17.6909500000      0.0639200000
                                                   
  eps=4.35875                                      
  epsinf=4.35875                                   
  RSolv=8.17                                       
                                                   

