%mem=1000MW
%nprocshared=40
#p wB97XD/6-31g** nosymm pop=esp opt td=(nstates=2,root=1) scf=(MaxCycle=20000) iop(3/107=0016000000,3/108=0016000000) SCRF=(PCM,Solvent=Generic,Read)

 Y6 opt-TDdft

0 1
C         -0.02875        0.38390        0.05254
C          0.07358        0.17213        1.43311
C          1.28506        0.45211        2.09236
C          2.41276        0.91750        1.42127
C          2.30247        1.11977        0.05163
C          1.09222        0.86194       -0.61702
C         -0.89885       -0.34759        2.42516
C         -0.30083       -0.15926        3.75737
C          1.13277        0.19977        3.54833
C         -1.01061       -0.11454        4.93601
C         -0.65550        0.04699        6.31096
S          0.98172       -0.08179        6.97909
C          0.35783        0.05242        8.58789
C         -1.03753        0.23495        8.59416
C         -1.63198        0.23391        7.32006
S         -1.71845        0.43295       10.21803
C         -0.11097        0.27128       10.88027
C          0.88535        0.08387        9.89834
N          2.11661       -0.06169       10.50039
C          1.91796        0.06472       11.87605
C          0.51387        0.22826       12.13082
C          2.83492        0.08782       12.95326
C          2.35084       -0.01569       14.30875
C          0.93725        0.04135       14.57719
C          0.01579        0.23379       13.48127
N          4.22589        0.16482       12.97289
C          4.62291        0.03823       14.28889
C          3.47565       -0.07874       15.12467
C          5.82101        0.02751       15.00756
C          5.59043       -0.10842       16.39683
S          3.87318       -0.21614       16.81927
C          6.75263       -0.14723       17.19243
C          7.89772       -0.02037       16.39561
S          7.52951        0.09702       14.67489
N         -1.25258        0.33827       13.85848
S         -1.26857        0.19327       15.50680
N          0.35361       -0.00422       15.76808
C          9.30395       -0.11258       16.81452
C         10.11712        0.94419       17.14841
C         11.50408        0.95876       17.55492
C         11.87759        2.36238       17.81350
C         10.76914        3.20754       17.57240
C          9.62300        2.37154       17.14934
C         10.81442        4.58688       17.72921
C         12.01679        5.15353       18.14387
C         13.12611        4.33547       18.38883
C         13.08127        2.95034       18.23254
F         14.27667        4.91104       18.78918
F         12.12346        6.49003       18.31356
C         12.37396       -0.16327       17.68714
C         13.73296       -0.07153       18.08950
N         14.85821       -0.05685       18.41575
O          8.49990        2.76180       16.86059
C          6.77631       -0.29216       18.69202
C          5.08892        0.78797       11.95503
C          3.24573       -0.72647        9.82901
C         -3.11402        0.40428        7.08552
O          2.01100        0.30351        4.39204
C         -2.07749       -1.00538        2.12875
C         -2.59829       -1.14911        0.80140
N         -3.07641       -1.29272       -0.25168
F          3.34609        1.57338       -0.65424
F          1.02797        1.08825       -1.93555
C         11.98912       -1.50488       17.42643
N         11.72803       -2.62996       17.22539
C         -2.87588       -1.69332        3.10137
N         -3.55408       -2.29772        3.83152
H         13.97766        2.38772       18.44125
H          9.94999        5.20930       17.53835
H          9.69305       -1.12284       16.83176
H          7.80013       -0.34914       19.05740
H          6.25034       -1.19845       19.00375
H          6.29091        0.56256       19.17068
H          5.66625        1.58353       12.42341
H          4.46941        1.24039       11.18779
H          5.76492        0.05921       11.51139
H          2.85922       -1.51474        9.18489
H          3.88223       -1.19567       10.57211
H          3.82274       -0.02174        9.23248
H         -3.31981        1.07662        6.25191
H         -3.59619        0.82746        7.96625
H         -3.58907       -0.55741        6.87910
H         -2.08377       -0.19397        4.81764
H          3.34272        1.12002        1.93500
H         -0.93019        0.21359       -0.51500

  eps=3.36
  epsinf=3.36
  RSolv=7.28

