%mem=800MW
%nprocshared=32
%chk=Y6-HSO-scan-60-T1fromS1.chk
%rwf=Y6-HSO-scan-60-T1fromS1.rwf
#p wB97XD/6-31g** td(50-50,nstates=5) 6D 10F nosymm GFInput scf=(MaxCycle=20000) iop(3/107=0016000000,3/108=0016000000) SCRF=(PCM,Solvent=Generic,Read)

 HSO

0 1
C               0.0372700000      0.6451900000      0.0535600000
C               0.1024000000      0.4230900000      1.4344800000
C               1.2628700000      0.7985900000      2.1373200000
C               2.3667200000      1.3731000000      1.5178300000
C               2.2906700000      1.5901700000      0.1457000000
C               1.1364000000      1.2340000000     -0.5678500000
C              -0.8554400000     -0.1926400000      2.3887800000
C              -0.2969300000     -0.0443100000      3.7286400000
C               1.0841100000      0.4895000000      3.5793300000
C              -1.0038400000     -0.2101500000      4.9164700000
C              -0.6672400000     -0.1463400000      6.2935900000
S               0.9727200000     -0.0375400000      6.9732800000
C               0.3379200000     -0.1625900000      8.5875100000
C              -1.0740500000     -0.2405100000      8.5852500000
C              -1.6608400000     -0.2328800000      7.3179000000
S              -1.7748300000     -0.3050100000     10.2168300000
C              -0.1622400000     -0.2192000000     10.8846100000
C               0.8499800000     -0.1412100000      9.8924300000
N               2.0912700000     -0.1001100000     10.4968600000
C               1.8792000000     -0.1118300000     11.8793700000
C               0.4612600000     -0.2342800000     12.1290200000
C               2.7733600000      0.0168900000     12.9583300000
C               2.3202100000     -0.2474200000     14.3050700000
C               0.9223800000     -0.4712000000     14.5659600000
C              -0.0239000000     -0.4013500000     13.4740400000
N               4.1337100000      0.3384400000     12.9988900000
C               4.5438700000      0.2184000000     14.3121500000
C               3.4397000000     -0.1481100000     15.1259000000
C               5.7285900000      0.3850800000     15.0430100000
C               5.5268800000      0.1446800000     16.4218200000
S               3.8524300000     -0.3013800000     16.8173200000
C               6.6679400000      0.2852700000     17.2148600000
C               7.8028300000      0.6434700000     16.4222000000
S               7.3773400000      0.8203100000     14.7045800000
N              -1.2874900000     -0.5602500000     13.8473100000
S              -1.2712300000     -0.7915700000     15.4882000000
N               0.3618700000     -0.6881900000     15.7492300000
C               9.1031300000      0.7567000000     16.9804500000
C              10.3389700000      1.1794400000     16.4975400000
C              11.5883500000      1.1721300000     17.2523400000
C              12.5598700000      2.0236200000     16.5180000000
C              11.9810400000      2.4211800000     15.2983500000
C              10.6010600000      1.8794500000     15.2104700000
C              12.6512800000      3.2005400000     14.3628300000
C              13.9455600000      3.6036500000     14.6746700000
C              14.5348700000      3.2246900000     15.8900200000
C              13.8643500000      2.4333900000     16.8203700000
F              15.7824100000      3.6419000000     16.1576100000
F              14.6464300000      4.3640900000     13.8180500000
C              11.8836400000      0.4382700000     18.4030400000
C              13.1122600000      0.5480000000     19.1244900000
N              14.0865300000      0.5986900000     19.7658800000
O               9.8437100000      2.0168900000     14.2576100000
C               6.6972100000      0.0866000000     18.7102800000
C               4.8716200000      1.1556600000     12.0234200000
C               3.3119000000     -0.5271500000      9.7940400000
C              -3.1469600000     -0.3058300000      7.0670100000
O               1.9216500000      0.6707300000      4.4546700000
C              -2.0227400000     -0.8659400000      2.0232300000
C              -2.5422600000     -0.8936200000      0.6922000000
N              -3.0270100000     -0.9452400000     -0.3687000000
F               3.3198000000      2.1471700000     -0.5131900000
F               1.0975300000      1.4699800000     -1.8887500000
C              11.0312500000     -0.5645800000     18.9607900000
N              10.4069600000     -1.4177400000     19.4563600000
C              -2.8036300000     -1.6695300000      2.9107700000
N              -3.4732200000     -2.3677600000      3.5645000000
H              14.3768000000      2.1805900000     17.7350300000
H              12.1937000000      3.4890200000     13.4261100000
H               9.1071900000      0.4617000000     18.0217500000
H               7.2618900000     -0.8085400000     18.9791300000
H               5.6898500000     -0.0278500000     19.1095700000
H               7.1532000000      0.9404500000     19.2159800000
H               5.3166600000      2.0069500000     12.5366500000
H               4.1800800000      1.5463500000     11.2838000000
H               5.6550500000      0.5783000000     11.5345400000
H               3.0574200000     -1.3231600000      9.0956600000
H               4.0182100000     -0.9327700000     10.5116800000
H               3.7657100000      0.2995400000      9.2496500000
H              -3.4225200000     -1.2556500000      6.6043900000
H              -3.4814100000      0.5007100000      6.4109700000
H              -3.7036900000     -0.2202400000      7.9995800000
H              -2.0589200000     -0.4104000000      4.7824300000
H               3.2558200000      1.6462500000      2.0703400000
H              -0.8174600000      0.3953700000     -0.5552300000

  eps=3.36
  epsinf=3.36
  RSolv=7.28
 
