%mem=800MW
%nprocshared=64
#p wB97XD/6-31g** opt td=(nstates=2,root=1) pop=esp scf=(MaxCycle=20000) nosymm iop(3/107=0002200000,3/108=0002200000) SCRF=(PCM,Solvent=Generic,Read)

ITIC

0  1
C         -0.15882       -0.14428       -0.01207
C         -0.06610        0.02526        1.37533
C          1.17104       -0.20887        2.01087
C          2.31246       -0.58093        1.30861
C          2.21269       -0.74147       -0.07961
C          0.98652       -0.52982       -0.72340
C          1.01066       -0.01600        3.47527
C         -0.42841        0.29655        3.70967
C         -1.06428        0.43389        2.40174
C         -1.08197        0.33545        4.93602
C         -0.67355        0.24210        6.29470
S          0.97433        0.13597        6.95442
C          0.35682        0.13120        8.58905
C         -1.06382        0.19457        8.59635
C         -1.63763        0.26074        7.33354
C          0.90136        0.06232        9.87534
C         -0.10312        0.07485       10.86403
S         -1.73133        0.17237       10.22809
C          2.29092        0.01029       10.52206
C          1.88504        0.02650       12.01875
C          0.45355        0.02094       12.16662
C          2.70223        0.02499       13.12487
C          2.08966        0.00299       14.40376
C          0.65879       -0.04139       14.55080
C         -0.15850       -0.02714       13.44492
C          0.25372       -0.12001       16.04597
C          1.64204       -0.06184       16.69477
C          2.64515        0.01941       15.70787
S          4.27052        0.13297       16.34799
C          3.60403        0.06535       17.97864
C          2.18562       -0.03514       17.98307
S          1.57028       -0.11831       19.61660
C          3.21599       -0.00028       20.28019
C          4.17768        0.08945       19.24288
C         -0.55482        1.11521       16.52347
C         -1.37701        1.05058       17.65904
C         -2.03854        2.18500       18.13554
C         -1.90221        3.43113       17.50436
C         -1.06495        3.49570       16.37897
C         -0.40178        2.36420       15.90029
C         -2.64996        4.65421       18.00375
C         -0.46308       -1.47923       16.25935
C         -1.84210       -1.61283       16.02419
C         -2.47277       -2.85360       16.12488
C         -1.75587       -4.01476       16.46042
C         -0.37794       -3.87891       16.68298
C          0.25733       -2.63820       16.58063
C          3.62603        0.04112       21.64085
C          2.97788       -0.06137       22.86653
C          3.61497        0.03384       24.17756
C          2.62038       -0.41598       25.19046
C          1.38578       -0.64369       24.54780
C          1.54378       -0.40276       23.09045
C          0.24824       -1.04913       25.23783
C          0.34892       -1.24900       26.62087
C          1.57231       -1.04244       27.27150
C          2.71383       -0.62454       26.57255
C          3.07818        1.27326       10.08534
C          3.90173        1.25622        8.94896
C          4.54480        2.41471        8.50689
C          4.38764        3.63897        9.17499
C          3.54935        3.65614       10.30142
C          2.90444        2.50018       10.74590
C          3.03265       -1.32845       10.26411
C          2.33405       -2.48819        9.90079
C          2.99158       -3.71324        9.75786
C          4.37106       -3.83222        9.98018
C          5.06633       -2.67053       10.35697
C          4.41344       -1.44537       10.49838
C          4.89052        0.52406       24.47564
C          5.78680        1.10657       23.52431
N          6.56736        1.60855       22.81463
O          0.65812       -0.48961       22.24752
C         -2.45344       -5.35594       16.60029
C          5.11547        4.88878        8.71390
C          5.09274       -5.15547        9.79843
C         -2.34070        0.93110        2.12088
C         -3.23634        1.47946        3.09302
N         -4.01576        1.95591        3.82122
O          1.89816       -0.11598        4.31473
C          5.45009        0.56115       25.79184
N          5.98082        0.62248       26.83049
C         -2.89923        1.01540        0.80646
N         -3.42825        1.11404       -0.23014
H         -0.51774       -1.56841       27.18811
H          1.64540       -1.20884       28.34028
H         -0.68622       -1.20766       24.71385
H          3.63638       -0.48444       27.11368
H          4.69913        0.16190       21.70304
H          5.23642        0.17475       19.44007
H         -1.23463       -0.04624       13.53776
H          3.77831        0.04466       13.03167
H         -2.69823        0.32715        7.13854
H         -2.15724        0.43766        4.87519
H         -1.08362        0.00080       -0.54816
H          0.91411       -0.66760       -1.79627
H          3.08231       -1.03489       -0.65635
H          3.24885       -0.74486        1.82741
H          0.24133        2.46908       15.03557
H         -3.54061       -2.91487       15.93989
H         -2.43841       -0.74629       15.76688
H          0.21603       -4.75009       16.94028
H          1.32537       -2.58857       16.75037
H         -0.92240        4.44194       15.86675
H         -2.66669        2.09132       19.01553
H         -1.51470        0.11228       18.18001
H          4.99362       -0.57758       10.78655
H          6.13472       -2.71893       10.54270
H          1.26578       -2.45202        9.72905
H          2.41382       -4.58552        9.46938
H          2.25959        2.56792       11.61321
H          3.39153        4.58450       10.84117
H          5.17486        2.35766        7.62511
H          4.05495        0.33614        8.40052
H         -2.82924        4.60062       19.07989
H         -2.09804        5.57418       17.79783
H         -3.62556        4.74018       17.51196
H         -1.75009       -6.18525       16.50072
H         -2.93201       -5.44488       17.58188
H         -3.23352       -5.48065       15.84486
H          5.28723        4.87673        7.63523
H          4.55284        5.79315        8.95680
H          6.09356        4.97026        9.20145
H          5.86689       -5.29525       10.55736
H          4.40278       -5.99960        9.85913
H          5.58320       -5.19954        8.81970
                                                   
  eps=4.53299                                      
  epsinf=4.53299                                   
  RSolv=8.11                                       
                                                   
                                                   
