%mem=800MW
%nprocshared=64
#p wB97XD/6-31g** opt td=(nstates=2,root=1) pop=esp scf=(MaxCycle=20000) nosymm iop(3/107=0002200000,3/108=0002200000) SCRF=(PCM,Solvent=Generic,Read)

ITIC

0  1
   C    -0.001765     0.064935     0.000578        
   C    -0.001095     0.052914     1.400560        
   C     1.229947     0.049839     2.081590        
   C     2.450918     0.057796     1.421515        
   C     2.442211     0.069642     0.025779        
   C     1.226209     0.073195    -0.668167        
   C     0.987087     0.037413     3.541142        
   C    -0.482735     0.033047     3.729954        
   C    -1.103070     0.041576     2.399756        
   C    -1.138414     0.024340     4.942560        
   C    -0.713526     0.015430     6.297834        
   S     0.939179     0.013378     6.962252        
   C     0.310560     0.003737     8.582676        
   C    -1.100606     0.004917     8.595423        
   C    -1.671892     0.011644     7.324721        
   C     0.863886    -0.017871     9.881783        
   C    -0.121174    -0.024076    10.853794        
   S    -1.751995    -0.007523    10.231533        
   C     2.254897     0.004771    10.518629        
   C     1.863438    -0.014557    12.014643        
   C     0.452819    -0.034950    12.178659        
   C     2.696209    -0.038609    13.121742        
   C     2.099310    -0.063565    14.390966        
   C     0.688539    -0.073999    14.554955        
   C    -0.143991    -0.069769    13.447557        
   C     0.296709    -0.117010    16.050294        
   C     1.687734    -0.140457    16.686590        
   C     2.672957    -0.093433    15.715841        
   S     4.303042    -0.072653    16.340068        
   C     3.650931    -0.132919    17.974873        
   C     2.240002    -0.158445    17.986081        
   S     1.610318    -0.221312    19.604838        
   C     3.262445    -0.216981    20.270738        
   C     4.221324    -0.165293    19.245597        
   C    -0.432680     1.160401    16.524405        
   C    -1.120137     1.165252    17.747207        
   C    -1.706884     2.330387    18.236094        
   C    -1.633420     3.535340    17.526082        
   C    -0.941060     3.528654    16.310366        
   C    -0.349922     2.365547    15.817120        
   C    -2.299319     4.788017    18.042654        
   C    -0.517314    -1.401237    16.310189        
   C    -1.901749    -1.423956    16.084843        
   C    -2.633157    -2.599762    16.234609        
   C    -2.015304    -3.797217    16.618690        
   C    -0.634161    -3.771709    16.837898        
   C     0.103591    -2.597614    16.685730        
   C     3.686445    -0.254149    21.625813        
   C     3.030108    -0.304701    22.837039        
   C     3.649537    -0.339074    24.167245        
   C     2.547040    -0.387194    25.164768        
   C     1.316564    -0.383368    24.482724        
   C     1.560315    -0.332611    23.024149        
   C     0.095304    -0.422977    25.141122        
   C     0.103120    -0.468084    26.536189        
   C     1.318549    -0.472472    27.231135        
   C     2.546819    -0.432734    26.564070        
   C     2.963690     1.309677    10.091118        
   C     3.641049     1.371176     8.863918        
   C     4.208621     2.561756     8.416201        
   C     4.126330     3.737101     9.173687        
   C     3.445118     3.673825    10.393830        
   C     2.872362     2.484734    10.845807        
   C     3.089346    -1.255951    10.211710        
   C     2.486628    -2.449502     9.799058        
   C     3.243236    -3.604970     9.603953        
   C     4.625881    -3.614254     9.815651        
   C     5.225402    -2.420155    10.236989        
   C     4.474956    -1.262623    10.429854        
   C     4.996396    -0.330896    24.486542        
   C     6.050112    -0.286522    23.522011        
   N     6.934005    -0.251270    22.762975        
   O     0.696422    -0.317232    22.154600        
   C    -2.817587    -5.060584    16.817579        
   C     4.771263     5.017313     8.699784        
   C     5.447906    -4.856527     9.569989        
   C    -2.450245     0.038985     2.081701        
   C    -3.503425     0.026102     3.047754        
   N    -4.386875     0.015457     3.808050        
   O     1.851609     0.032165     4.410190        
   C     5.488096    -0.366847    25.828040        
   N     5.933593    -0.394907    26.904266        
   C    -2.942842     0.048299     0.740082        
   N    -3.389070     0.055588    -0.336181        
   H    -0.832161    -0.500024    27.086577        
   H     1.313053    -0.507722    28.316261        
   H    -0.826892    -0.418563    24.568982        
   H     3.462384    -0.437960    27.138873        
   H     4.769111    -0.238614    21.678337        
   H     5.284397    -0.152972    19.457257        
   H    -1.223523    -0.096891    13.555666        
   H     3.776025    -0.043017    13.012947        
   H    -2.735283     0.014547     7.114329        
   H    -2.221249     0.023815     4.891215        
   H    -0.917795     0.068035    -0.573501        
   H     1.231014     0.082536    -1.753827        
   H     3.377244     0.076117    -0.525918        
   H     3.373578     0.054581     1.992911        
   H     0.181420     2.404801    14.872474        
   H    -3.705114    -2.584757    16.053194        
   H    -2.417371    -0.511215    15.803430        
   H    -0.122422    -4.683887    17.134177        
   H     1.174329    -2.620694    16.858855        
   H    -0.859632     4.448149    15.735887        
   H    -2.228938     2.299666    19.189053        
   H    -1.208353     0.249175    18.322270        
   H     4.976482    -0.351225    10.739672        
   H     6.297887    -2.393013    10.413737        
   H     1.415522    -2.484858     9.630316        
   H     2.745434    -4.515315     9.279578        
   H     2.348497     2.480578    11.795404        
   H     3.357446     4.568897    11.004771        
   H     4.722504     2.575073     7.458371        
   H     3.736355     0.479254     8.253075        
   H    -2.278867     4.829746    19.135820        
   H    -1.810046     5.688238    17.659630        
   H    -3.351851     4.833321    17.736052        
   H    -2.197065    -5.952359    16.690985        
   H    -3.246957    -5.102377    17.826333        
   H    -3.649631    -5.122766    16.109479        
   H     4.707801     5.117604     7.611953        
   H     4.297172     5.894459     9.149411        
   H     5.835142     5.048242     8.966260        
   H     6.294674    -4.919979    10.260209        
   H     4.846913    -5.763042     9.686094        
   H     5.857819    -4.865340     8.552339        
                                                   
  eps=4.53299                                      
  epsinf=4.53299                                   
  RSolv=8.11                                       
                                                   
                                                   
 
