%mem=1000MW
%nprocshared=32
#p wB97XD/6-31g** nosymm pop=esp opt td=(nstates=2,root=1) scf=(MaxCycle=20000) iop(3/107=0001100000,3/108=0001100000) SCRF=(PCM,Solvent=Generic,Read)

 IT-4Cl opt-TDdft

0 1
C          0.49310       -0.28512       -0.01949
C          0.39310       -0.16897        1.37426
C          1.58506       -0.19379        2.11809
C          2.82461       -0.31724        1.48899
C          2.92914       -0.42610        0.09207
C          1.73663       -0.40722       -0.64637
C         -0.98601       -0.15124        2.08629
C         -2.13983        0.26530        1.16361
C         -3.01645       -0.82985        0.94517
C         -2.57484       -1.98508        1.62301
C         -1.38187       -1.62871        2.35177
S         -4.39520       -0.44737       -0.07046
C         -3.80337        1.20969       -0.20905
C         -2.58707        1.41113        0.51947
C         -4.28984        2.32408       -0.86742
C         -3.46281        3.46265       -0.67493
S         -2.05951        3.06725        0.35912
C         -0.73278       -2.55785        3.12655
C         -1.26297       -3.87667        3.17448
C         -2.44290       -4.23946        2.42932
C         -3.10120       -3.30686        1.66633
C         -0.82652       -5.03120        3.86150
C         -1.64098       -6.14996        3.56296
C         -2.77133       -5.74688        2.60511
S          0.47713       -5.37435        4.98372
C         -0.06790       -7.05045        5.05987
C         -1.21342       -7.28895        4.24195
S         -1.70611       -8.96483        4.33099
C         -0.39198       -9.32724        5.47266
C          0.38509       -8.16446        5.74161
C         -3.60274        4.80631       -1.08198
C         -4.45072        5.41540       -2.01820
C         -5.16170        4.75612       -3.15635
C         -5.59253        5.85910       -4.06419
C         -5.23860        7.09768       -3.50352
C         -4.59528        6.85277       -2.18109
C         -6.23466        5.75181       -5.28826
C         -6.53005        6.92671       -5.99291
C         -6.17499        8.17676       -5.44803
C         -5.53280        8.26919       -4.20237
Cl        -7.33302        6.79261       -7.54171
Cl        -6.51754        9.66738       -6.29890
O         -5.33983        3.56365       -3.36580
C         -4.29333        7.83884       -1.23940
C         -4.40060        9.24363       -1.48866
N         -4.45344       10.40181       -1.62500
C         -1.03672        0.73965        3.35500
C         -0.32284        1.94696        3.41855
C         -0.42668        2.78910        4.52780
C         -1.25342        2.46715        5.61587
C         -1.97636        1.26618        5.54296
C         -1.87519        0.42141        4.43469
C         -2.65791       -6.41518        1.20946
C         -3.75213       -6.43314        0.32886
C         -3.63185       -6.95810       -0.95953
C         -2.41539       -7.48199       -1.42601
C         -1.32092       -7.44949       -0.54812
C         -1.43722       -6.92280        0.74060
C         -4.12301       -6.00032        3.32436
C         -4.79090       -7.22947        3.19484
C         -5.96244       -7.49136        3.90674
C         -6.51345       -6.54262        4.78424
C         -5.83678       -5.32160        4.92120
C         -4.66314       -5.05562        4.20967
C         -0.08914      -10.55104        6.11414
C         -0.59424      -11.84929        6.04373
C         -1.58415      -12.36723        5.06075
C         -1.57305      -13.85038        5.19648
C         -0.68877      -14.21742        6.22530
C         -0.13185      -12.97875        6.84301
C         -0.48501      -15.57234        6.49288
C         -1.17671      -16.52966        5.73387
C         -2.07549      -16.14313        4.71897
C         -2.27439      -14.78321        4.44762
C         -2.29390       -8.09054       -2.81170
C         -7.79826       -6.83379        5.53960
O         -2.26876      -11.72790        4.27267
C          0.61183      -12.94459        8.02213
C          1.04530      -14.11018        8.73125
N          1.43829      -15.01166        9.35982
Cl        -0.88188      -18.21755        6.08926
Cl        -2.95426      -17.32206        3.77182
C         -1.38035        3.39865        6.80829
C          4.28251       -0.53773       -0.58744
C          0.98294      -11.74689        8.71496
N          1.30462      -10.82050        9.34805
C         -3.91045        7.57159        0.11493
N         -3.62266        7.44028        1.23859
H         -6.49942        4.78491       -5.69374
H         -5.27842        9.24798       -3.82967
H         -2.90909        5.48080       -0.59572
H         -5.18900        2.36127       -1.45780
H          0.15859       -2.30674        3.68326
H         -3.99083       -3.55818        1.10700
H          1.22945       -8.17888        6.41562
H          0.74644      -10.42646        6.79003
H          0.19562      -15.91831        7.25331
H         -2.95698      -14.47029        3.66959
H         -2.45661       -0.49196        4.42473
H          3.72229       -0.32961        2.09930
H          1.55556       -0.11046        3.19732
H          1.77026       -0.49334       -1.72779
H         -0.39852       -0.28902       -0.63387
H         -2.63113        0.97976        6.35989
H          0.14710        3.71023        4.54024
H          0.33553        2.23510        2.60941
H         -4.71305       -6.04636        0.64478
H         -4.50315       -6.95933       -1.60698
H         -0.55993       -6.91112        1.37503
H         -0.36047       -7.84028       -0.86886
H         -4.17423       -4.10086        4.35700
H         -6.22307       -4.56242        5.59376
H         -6.45003       -8.45200        3.77508
H         -4.40749       -7.99133        2.52889
H         -2.14170        4.16419        6.62139
H         -1.67192        2.85830        7.71159
H         -0.43992        3.91613        7.01197
H          4.19842       -0.99699       -1.57464
H          4.73464        0.45149       -0.72066
H          4.97738       -1.13677        0.00638
H         -7.75169       -7.80667        6.03705
H         -8.00022       -6.07623        6.29917
H         -8.65447       -6.85813        4.85696
H         -3.03290       -7.67471       -3.50024
H         -1.30198       -7.92208       -3.23784
H         -2.45385       -9.17394       -2.77259

  eps=4.88617
  epsinf=4.88617
  RSolv=8.36
 
