%mem=800MW
%nprocshared=32
%chk=IT-4Cl-HSO-scan-90-T1toS1.chk
%rwf=IT-4Cl-HSO-scan-90-T1toS1.rwf
#p wB97XD/6-31g** td(50-50,nstates=5) 6D 10F nosymm GFInput scf=(MaxCycle=20000) iop(3/107=0001100000,3/108=0001100000) SCRF=(PCM,Solvent=Generic,Read)

IT-4Cl-scan-9  HSO

0  1
C               0.5731500000     -0.2752100000      0.0526200000
C               0.4626000000     -0.1599000000      1.4457100000
C               1.6482600000     -0.1906400000      2.1991600000
C               2.8923300000     -0.3187900000      1.5797000000
C               3.0075200000     -0.4265500000      0.1836000000
C               1.8209900000     -0.4019700000     -0.5644700000
C              -0.9227800000     -0.1366500000      2.1452400000
C              -2.0646100000      0.2961900000      1.2152000000
C              -2.9501200000     -0.7890900000      0.9836500000
C              -2.5241600000     -1.9529700000      1.6568700000
C              -1.3330400000     -1.6125800000      2.3962100000
S              -4.3167000000     -0.3885000000     -0.0411100000
C              -3.7070200000      1.2630000000     -0.1675800000
C              -2.4950800000      1.4492400000      0.5722100000
C              -4.1761600000      2.3846700000     -0.8262300000
C              -3.3389900000      3.5137100000     -0.6229500000
S              -1.9492000000      3.1003800000      0.4222300000
C              -0.6968600000     -2.5532700000      3.1678100000
C              -1.2385500000     -3.8678100000      3.2018400000
C              -2.4169600000     -4.2144600000      2.4465300000
C              -3.0623700000     -3.2703100000      1.6867300000
C              -0.8169100000     -5.0314000000      3.8829300000
C              -1.6402000000     -6.1401600000      3.5714000000
C              -2.7598700000     -5.7201700000      2.6085900000
S               0.4771300000     -5.3948700000      5.0096300000
C              -0.0845000000     -7.0661700000      5.0709100000
C              -1.2274400000     -7.2878900000      4.2446500000
S              -1.7362900000     -8.9597200000      4.3184900000
C              -0.4320300000     -9.3428100000      5.4647800000
C               0.3540300000     -8.1893000000      5.7470400000
C              -3.4598100000      4.8598300000     -1.0284200000
C              -4.2929300000      5.4816700000     -1.9694800000
C              -5.0092600000      4.8341500000     -3.1110300000
C              -5.4193400000      5.9441400000     -4.0198500000
C              -5.0475700000      7.1767300000     -3.4576900000
C              -4.4149300000      6.9214100000     -2.1321000000
C              -6.0586700000      5.8473100000     -5.2462800000
C              -6.3320000000      7.0269100000     -5.9520100000
C              -5.9578800000      8.2708900000     -5.4061300000
C              -5.3189700000      8.3528200000     -4.1580600000
Cl             -7.1319500000      6.9059300000     -7.5034600000
Cl             -6.2719800000      9.7668800000     -6.2584700000
O              -5.2054300000      3.6447700000     -3.3221300000
C              -4.1037000000      7.9023000000     -1.1881000000
C              -4.1899400000      9.3086700000     -1.4364500000
N              -4.2258800000     10.4676200000     -1.5715800000
C              -0.9769300000      0.7446900000      3.4204400000
C              -0.2622700000      1.9521800000      3.4934600000
C              -0.3686700000      2.7869800000      4.6066700000
C              -1.1972000000      2.4570700000      5.6924900000
C              -1.9213500000      1.2588800000      5.6092400000
C              -1.8183700000      0.4207800000      4.4948000000
C              -2.6406100000     -6.3795100000      1.2091700000
C              -3.7265600000     -6.3808600000      0.3183000000
C              -3.5989800000     -6.8978700000     -0.9726700000
C              -2.3831300000     -7.4297200000     -1.4316500000
C              -1.2966100000     -7.4134200000     -0.5434500000
C              -1.4202700000     -6.8949500000      0.7478200000
C              -4.1192800000     -5.9662400000      3.3156600000
C              -4.7998600000     -7.1850700000      3.1702100000
C              -5.9802200000     -7.4404800000      3.8728300000
C              -6.5251400000     -6.4950300000      4.7551600000
C              -5.8335700000     -5.2825900000      4.9096000000
C              -4.6540200000     -5.0234700000      4.2083800000
C              -0.1440500000    -10.5739400000      6.0989600000
C              -0.6601200000    -11.8671300000      6.0157100000
C              -1.6474300000    -12.3694900000      5.0220600000
C              -1.6518200000    -13.8534400000      5.1487000000
C              -0.7783100000    -14.2354200000      6.1812300000
C              -0.2137800000    -13.0060600000      6.8106500000
C              -0.5892000000    -15.5938800000      6.4415200000
C              -1.2844700000    -16.5396800000      5.6713800000
C              -2.1723900000    -16.1382100000      4.6528400000
C              -2.3566500000    -14.7747100000      4.3889300000
C              -2.2541500000     -8.0297500000     -2.8203600000
C              -7.8250300000     -6.7599400000      5.4937400000
O              -2.3192800000    -11.7187400000      4.2323500000
C               0.5226100000    -12.9866800000      7.9947000000
C               0.9399100000    -14.1610300000      8.6990400000
N               1.3197400000    -15.0703100000      9.3244600000
Cl             -1.0080100000    -18.2325200000      6.0179400000
Cl             -3.0554700000    -17.3025500000      3.6917800000
C              -1.2856800000      3.3635600000      6.9073100000
C               4.3657400000     -0.5427900000     -0.4853700000
C               0.9011200000    -11.7973200000      8.6978300000
N               1.2281200000    -10.8785300000      9.3392200000
C              -3.7317100000      7.6288600000      0.1680300000
N              -3.4514400000      7.4928700000      1.2930300000
H              -6.3382300000      4.8849000000     -5.6525600000
H              -5.0489300000      9.3272200000     -3.7850100000
H              -2.7619300000      5.5249800000     -0.5353900000
H              -5.0693100000      2.4332600000     -1.4248000000
H               0.1929000000     -2.3141300000      3.7323800000
H              -3.9505600000     -3.5095500000      1.1198200000
H               1.1941000000     -8.2164800000      6.4259900000
H               0.6881000000    -10.4616500000      6.7812500000
H               0.0829000000    -15.9509700000      7.2044300000
H              -3.0308600000    -14.4503800000      3.6082500000
H              -2.4035500000     -0.4899800000      4.4761700000
H               3.7849800000     -0.3356300000      2.1972400000
H               1.6103000000     -0.1083200000      3.2781900000
H               1.8631000000     -0.4871400000     -1.6456600000
H              -0.3137700000     -0.2746700000     -0.5685900000
H              -2.5798000000      0.9678600000      6.4214800000
H               0.2034000000      3.7091300000      4.6261000000
H               0.3963200000      2.2457100000      2.6864000000
H              -4.6867400000     -5.9870000000      0.6274800000
H              -4.4640800000     -6.8865500000     -1.6282700000
H              -0.5492400000     -6.8957200000      1.3909100000
H              -0.3367500000     -7.8106300000     -0.8579500000
H              -4.1542100000     -4.0764600000      4.3686200000
H              -6.2147900000     -4.5265500000      5.5888100000
H              -6.4767400000     -8.3946700000      3.7288600000
H              -4.4206100000     -7.9457300000      2.5004900000
H              -1.5074300000      4.3943700000      6.6161100000
H              -2.0620300000      3.0352800000      7.6007800000
H              -0.3358400000      3.3780100000      7.4523000000
H               4.2880900000     -1.0045600000     -1.4719400000
H               4.8207200000      0.4452100000     -0.6180000000
H               5.0550200000     -1.1415400000      0.1152200000
H              -7.9876900000     -7.8287700000      5.6483900000
H              -7.8366000000     -6.2709700000      6.4706500000
H              -8.6795400000     -6.3756400000      4.9253700000
H              -2.9889600000     -7.6092100000     -3.5104900000
H              -1.2597000000     -7.8592500000     -3.2398100000
H              -2.4147900000     -9.1133100000     -2.7889700000
                                                
  eps=4.88617                                      
  epsinf=4.88617                                   
  RSolv=8.36                                       
  
