%mem=800MW
%nprocshared=64
#p wB97XD/6-31g** opt td=(nstates=2,root=1) pop=esp scf=(MaxCycle=20000) nosymm iop(3/107=0000400000,3/108=0000400000) SCRF=(PCM,Solvent=Generic,Read)

IEICO-4F

0  1
   C    12.284560    -0.920014     9.631476        
   C    12.654072     0.006703     8.648938        
   C    13.971980     0.000400     8.159980        
   C    14.940256    -0.889101     8.607059        
   C    14.562525    -1.801919     9.580609        
   C    13.252562    -1.810694    10.079786        
   C    14.123721     1.061186     7.138182        
   C    12.811819     1.730448     7.022790        
   C    11.892032     1.081017     7.957679        
   C    12.519476     2.785333     6.177760        
   C    13.266811     3.522571     5.230127        
   C    12.664280     4.569578     4.513669        
   C    13.518591     5.209429     3.614206        
   C    14.819420     4.671078     3.605793        
   S    14.954235     3.352130     4.747521        
   C    15.936151     5.078532     2.811741        
   C    17.213370     4.515003     2.807057        
   C    18.088776     5.155977     1.918824        
   C    17.496022     6.203789     1.233019        
   S    15.840223     6.434522     1.664247        
   C    18.428637     6.825713     0.323575        
   C    19.653280     6.113409     0.438792        
   C    19.540123     4.966515     1.471075        
   C    20.761848     6.501400    -0.295848        
   C    20.628400     7.597845    -1.161578        
   C    19.399533     8.301098    -1.288075        
   C    18.296501     7.925134    -0.538795        
   C    19.527453     9.478972    -2.282838        
   C    20.999440     9.333414    -2.677043        
   C    21.575641     8.250222    -2.033646        
   S    23.227960     8.011264    -2.474185        
   C    23.153665     9.413925    -3.565806        
   C    21.882638     9.990775    -3.545268        
   C    18.669910     9.312052    -3.555990        
   C    18.532587    10.390952    -4.443939        
   C    17.841401    10.251238    -5.643600        
   C    17.256041     9.030254    -6.007422        
   C    17.397844     7.956952    -5.123490        
   C    18.092702     8.091569    -3.919525        
   C    16.482308     8.892228    -7.296679        
   C    19.217098    10.792410    -1.534936        
   C    17.898099    11.256402    -1.427068        
   C    17.597499    12.399672    -0.689438        
   C    18.598254    13.123823    -0.029344        
   C    19.913284    12.658953    -0.140358        
   C    20.218986    11.513551    -0.875144        
   C    24.279469     9.842726    -4.335386        
   S    24.171067    11.224026    -5.403801        
   C    25.855187    11.047445    -5.895575        
   C    26.436999     9.952022    -5.236626        
   C    25.570023     9.281365    -4.372374        
   C    19.671391     3.559847     0.847749        
   C    19.542276     3.336073    -0.526919        
   C    19.576371     2.042368    -1.050037        
   C    19.738326     0.926068    -0.223735        
   C    19.859100     1.152325     1.154094        
   C    19.827081     2.440799     1.680402        
   C    20.568998     5.211644     2.594311        
   C    20.250700     5.969172     3.727141        
   C    21.212428     6.246002     4.698982        
   C    22.527395     5.785260     4.574741        
   C    22.843962     5.028602     3.439120        
   C    21.886538     4.747175     2.467124        
   C    26.617486    11.821314    -6.801119        
   C    26.345919    12.926739    -7.586439        
   C    25.046669    13.625370    -7.665198        
   C    25.219406    14.738476    -8.626116        
   C    26.537735    14.735307    -9.113870        
   C    27.278939    13.610409    -8.482980        
   C    26.925732    15.708795   -10.042626        
   C    25.975027    16.641047   -10.440578        
   C    24.664401    16.628581    -9.943225        
   C    24.268407    15.669513    -9.022859        
   O    25.844209     8.197385    -3.606209        
   C    27.163212     7.659832    -3.673124        
   O    24.011461    13.357337    -7.064165        
   C    28.608235    13.311918    -8.734889        
   C    29.316298    12.230907    -8.125696        
   N    29.922453    11.357978    -7.646635        
   C    18.265865    14.349094     0.788313        
   C    19.806742    -0.470345    -0.794012        
   C    23.573837     6.107279     5.614660        
   O    13.224304     6.246075     2.792047        
   C    11.895040     6.760562     2.829697        
   C    10.557914     1.369675     8.195288        
   C     9.759270     0.657863     9.141799        
   N     9.078432     0.099299     9.904926        
   O    15.153449     1.314467     6.521567        
   C    29.421100    14.060961    -9.639664        
   N    30.112947    14.649022   -10.370026        
   C     9.830382     2.402835     7.528617        
   N     9.208126     3.237147     7.003595        
   H    15.950554    -0.872981     8.213721        
   H    11.293830    -0.982828    10.060120        
   H    11.625305     4.831741     4.668958        
   H    11.867599     7.574982     2.106103        
   H    11.649360     7.147079     3.825654        
   H    11.166347     5.992846     2.544540        
   H    17.476965     3.667910     3.429404        
   H    19.409468     4.174386    -1.201829        
   H    19.473604     1.902895    -2.123421        
   H    19.979861     0.306875     1.827050        
   H    19.933409     2.578151     2.752125        
   H    19.241736     6.345030     3.859903        
   H    20.930368     6.829334     5.572012        
   H    22.163524     4.141213     1.610316        
   H    23.854378     4.646390     3.315063        
   H    21.251083    11.185077    -0.937382        
   H    20.716074    13.202179     0.352101        
   H    17.098925    10.732136    -1.941509        
   H    16.565859    12.738562    -0.632456        
   H    18.963758    11.354410    -4.189457        
   H    17.755003    11.106314    -6.309686        
   H    18.184584     7.232190    -3.264672        
   H    16.959831     6.994597    -5.376646        
   H    17.360157     8.469837    -0.607254        
   H    21.709680     5.981605    -0.198158        
   H    21.626596    10.854106    -4.148091        
   H    18.008770    14.079079     1.820266        
   H    17.409593    14.888192     0.371974        
   H    19.111901    15.040910     0.834906        
   H    15.469729     9.303087    -7.199003        
   H    16.382742     7.844304    -7.593198        
   H    16.970277     9.430810    -8.115253        
   H    27.470711     9.678333    -5.406434        
   H    27.918080    15.777260   -10.466642        
   H    23.257499    15.650262    -8.631229        
   H    27.175533     6.808433    -2.992996        
   H    27.906984     8.397517    -3.350038        
   H    27.400235     7.321041    -4.688371        
   H    19.299960    -0.532472    -1.761284        
   H    19.344846    -1.200139    -0.121987        
   H    20.846113    -0.785890    -0.948983        
   H    23.120392     6.314059     6.588273        
   H    24.155389     6.993337     5.330773        
   H    24.282240     5.282527     5.739302        
   H    11.502117     3.156291     6.225048        
   H    27.627836    11.434570    -6.868377        
   F    23.807615    17.561471   -10.376404        
   F    26.303679    17.589398   -11.326675        
   F    12.941909    -2.713615    11.018285        
   F    15.436766    -2.692740    10.064584        
 
 eps=4.99
 epsinf=4.99
 RSolv=7.92
 
