%mem=800MW
%nprocshared=40
%chk=IT-4Cl-TDDFT-S1TOT1-Triplet.chk
#p wB97XD/6-31g** td=(triplet,nstates=3) scf=(MaxCycle=20000) iop(3/107=0001100000,3/108=0001100000) SCRF=(PCM,Solvent=Generic,Read)

IT-4Cl

0  1
C              -5.0489100000     15.4738100000     -0.5557500000
C              -4.7609900000     14.1246900000     -0.3292100000
C              -4.6340400000     13.6765000000      0.9973700000
C              -4.7830500000     14.5136400000      2.0918200000
C              -5.0705900000     15.8659000000      1.8638200000
C              -5.2015200000     16.3360800000      0.5415900000
C              -4.3245000000     12.2235200000      0.9957600000
C              -4.2553100000     11.8028100000     -0.4299600000
C              -4.5433700000     12.9764800000     -1.2544500000
C              -3.9525700000     10.5256100000     -0.8940200000
C              -3.6454900000      9.2797600000     -0.2813500000
S              -3.5473400000      8.8781100000      1.4485300000
C              -3.1355600000      7.2227900000      1.0768500000
C              -3.0812400000      7.0127600000     -0.3282200000
C              -3.3636800000      8.1437500000     -1.0827900000
C              -2.8310500000      6.0701700000      1.8082300000
C              -2.5492900000      4.9795700000      0.9610600000
S              -2.6547200000      5.3537800000     -0.7457300000
C              -2.2362800000      3.8145600000      1.7074100000
C              -2.3635600000      4.1547000000      3.1002800000
C              -2.7422600000      5.6475400000      3.2790900000
C              -1.8517600000      2.5133800000      1.2944600000
C              -1.6055900000      1.5742600000      2.2688700000
C              -1.7498400000      1.9106800000      3.6606800000
C              -2.1287400000      3.2128300000      4.0740900000
C              -1.1299300000      0.1077000000      2.0958600000
C              -1.0767000000     -0.3233700000      3.5669900000
C              -1.4495200000      0.7442300000      4.4084600000
S              -1.4533500000      0.3473700000      6.1124600000
C              -0.9479500000     -1.2907000000      5.7032800000
C              -0.7951200000     -1.4801100000      4.3020200000
S              -0.3017900000     -3.1166300000      3.9423800000
C              -0.2860800000     -3.5294400000      5.6720200000
C              -0.6661500000     -2.4169400000      6.4643400000
C               0.2657600000      0.1558300000      1.4195900000
C               0.3866600000      0.2192100000      0.0216500000
C               1.6347100000      0.3636100000     -0.5875000000
C               2.8136000000      0.4533200000      0.1707200000
C               2.6874400000      0.3967000000      1.5672400000
C               1.4401300000      0.2554900000      2.1802700000
C               4.1734600000      0.5818800000     -0.4923700000
C              -2.1664200000     -0.7924500000      1.3731200000
C              -1.7738000000     -1.9745400000      0.7254700000
C              -2.7177700000     -2.8335000000      0.1584200000
C              -4.0923600000     -2.5535300000      0.2201500000
C              -4.4816100000     -1.3759100000      0.8779400000
C              -3.5404800000     -0.5141200000      1.4459200000
C               0.0763700000     -4.7562700000      6.2908100000
C               0.4491700000     -6.0156800000      5.8311800000
C               0.4082000000     -6.4910000000      4.4209900000
C               0.6408400000     -7.9599500000      4.4655300000
C               0.8682800000     -8.3538400000      5.7966700000
C               0.8290000000     -7.1492300000      6.6707100000
C               1.0907400000     -9.7057100000      6.0710200000
C               1.0819000000    -10.6290000000      5.0134500000
C               0.8600900000    -10.2140600000      3.6847100000
C               0.6378400000     -8.8577600000      3.4096400000
C              -4.1395700000      5.8480000000      3.9243800000
C              -4.4795900000      7.0556000000      4.5558500000
C              -5.7585800000      7.2611200000      5.0762400000
C              -6.7540900000      6.2745200000      4.9830500000
C              -6.4165500000      5.0771500000      4.3336600000
C              -5.1378500000      4.8684800000      3.8104000000
C              -1.5797300000      6.3347100000      4.0435500000
C              -1.5473500000      6.3474000000      5.4478400000
C              -0.4608600000      6.8878200000      6.1383300000
C               0.6403600000      7.4342200000      5.4590600000
C               0.6110300000      7.4052000000      4.0563700000
C              -0.4733400000      6.8629500000      3.3620500000
O               0.2073300000     -5.8315400000      3.4090800000
C               1.1737800000     -7.1368000000      8.0256000000
C               1.3085100000     -5.9556600000      8.8223800000
N               1.4570400000     -5.0403700000      9.5327500000
Cl              0.8487500000    -11.3495800000      2.3542900000
Cl              1.3565300000    -12.3133900000      5.4019700000
C              -5.1127900000     -3.4811900000     -0.4148800000
C              -8.1305900000      6.4917800000      5.5854700000
C               1.8007800000      8.0600600000      6.2119000000
C              -4.6234000000     13.0639600000     -2.6483100000
C              -4.4397200000     11.9763500000     -3.5593300000
N              -4.3065800000     11.1471700000     -4.3715000000
O              -4.1615300000     11.5318600000      1.9933500000
Cl             -5.2553700000     16.9268500000      3.2419500000
Cl             -5.5602100000     18.0172800000      0.2101500000
C               1.4925400000     -8.3083200000      8.7820500000
N               1.7568800000     -9.2178900000      9.4651900000
C              -4.9127200000     14.2700400000     -3.3615200000
N              -5.1420500000     15.2077500000     -4.0188800000
H              -4.6778800000     14.1323700000      3.0984300000
H              -5.1594900000     15.8878800000     -1.5439500000
H              -3.9310100000     10.4225400000     -1.9695400000
H              -3.3720100000      8.1811500000     -2.1624900000
H              -2.2271200000      3.4482300000      5.1237500000
H              -1.7536800000      2.2781400000      0.2447000000
H              -0.7195400000     -2.4652600000      7.5423400000
H               0.0236500000     -4.6611500000      7.3668700000
H               1.2618300000    -10.0751600000      7.0686800000
H               0.4662600000     -8.5215700000      2.3962300000
H              -4.9308500000      3.9299600000      3.3118800000
H              -0.4776500000      6.8840700000      7.2236500000
H              -2.3752100000      5.9429700000      6.0164700000
H               1.4439000000      7.8104000000      3.4908000000
H              -0.4407800000      6.8538800000      2.2798800000
H              -7.1583200000      4.2914800000      4.2315400000
H              -5.9782600000      8.2063800000      5.5620100000
H              -3.7442900000      7.8429000000      4.6574900000
H              -0.4929400000      0.1501900000     -0.6060700000
H               1.6860100000      0.4065300000     -1.6708700000
H               1.3954200000      0.2304600000      3.2616500000
H               3.5719600000      0.4656000000      2.1923600000
H              -3.8933500000      0.3757500000      1.9520800000
H              -5.5346400000     -1.1250200000      0.9566300000
H              -2.3718200000     -3.7370300000     -0.3330700000
H              -0.7258300000     -2.2345900000      0.6545500000
H              -8.4934000000      7.5053500000      5.3961300000
H              -8.8624200000      5.7893700000      5.1815000000
H              -8.1033900000      6.3527500000      6.6719800000
H               2.7361900000      7.9703500000      5.6548900000
H               1.6208300000      9.1275300000      6.3816300000
H               1.9430100000      7.5926100000      7.1890100000
H              -4.8260100000     -4.5291300000     -0.2978800000
H              -6.1024700000     -3.3507400000      0.0279400000
H              -5.2033100000     -3.2844600000     -1.4890100000
H               4.0966800000      1.0493700000     -1.4764600000
H               4.8576700000      1.1798200000      0.1143000000
H               4.6330600000     -0.4032400000     -0.6303400000
                                                
  eps=4.88617                                      
  epsinf=4.88617                                   
  RSolv=8.36                                       
    
