%mem=800MW
%nprocshared=64
#p wB97XD/6-31g** opt td=(nstates=2,root=1) pop=esp scf=(MaxCycle=20000) nosymm iop(3/107=0002300000,3/108=0002300000) SCRF=(PCM,Solvent=Generic,Read)

IT-2Cl

0  1
   C    -0.486959     6.930075     3.425002        
   C    -1.593563     6.359947     4.064344        
   C    -1.611864     6.358769     5.466749        
   C    -0.563050     6.912834     6.197330        
   C     0.541640     7.492265     5.560019        
   C     0.558702     7.486593     4.161182        
   C    -2.711532     5.657974     3.265387        
   C    -2.764575     6.081055     1.795941        
   C    -2.491093     5.007897     0.965437        
   C    -2.207601     3.816019     1.729264        
   C    -2.334382     4.167404     3.099696        
   S    -2.565961     5.373594    -0.739535        
   C    -2.978418     7.037962    -0.338175        
   C    -3.049749     7.249048     1.056089        
   C    -3.243344     8.179087    -1.091025        
   C    -3.525628     9.302405    -0.295009        
   S    -3.454134     8.895481     1.437670        
   C    -2.095228     3.226093     4.087690        
   C    -1.745960     1.928292     3.685705        
   C    -1.629308     1.574337     2.314997        
   C    -1.851143     2.520262     1.327422        
   C    -1.430712     0.744453     4.449723        
   C    -1.106111    -0.314873     3.619763        
   C    -1.216244     0.093515     2.149640        
   S    -1.376807     0.372161     6.154129        
   C    -0.893956    -1.273365     5.753248        
   C    -0.801275    -1.478004     4.359336        
   S    -0.317403    -3.102823     3.977971        
   C    -0.236212    -3.508259     5.710735        
   C    -0.580480    -2.401986     6.506276        
   C    -3.820033    10.544371    -0.915321        
   C    -4.134730    11.803002    -0.445807        
   C    -4.251299    12.189348     0.979401        
   C    -4.603310    13.625254     1.003711        
   C    -4.701949    14.108860    -0.312515        
   C    -4.413576    12.993032    -1.256431        
   C    -4.818334    14.433268     2.111649        
   C    -5.143953    15.772576     1.905461        
   C    -5.243212    16.256463     0.595497        
   C    -5.028695    15.451507    -0.527439        
   H    -5.320823    16.441807     2.739564        
  Cl    -5.654151    17.942418     0.351613        
   O    -4.092022    11.477103     1.964293        
   C    -4.420580    13.112503    -2.634839        
   C    -4.708923    14.333925    -3.318466        
   N    -4.937823    15.307731    -3.915625        
   C    -4.111852     5.868060     3.883912        
   C    -4.484458     7.132854     4.363725        
   C    -5.770653     7.368040     4.843334        
   C    -6.735608     6.352768     4.866227        
   C    -6.362751     5.094777     4.381535        
   C    -5.076603     4.854419     3.897210        
   C     0.128538     0.039234     1.395598        
   C     0.159055     0.048386    -0.006524        
   C     1.368545     0.085581    -0.696782        
   C     2.593453     0.111378    -0.017753        
   C     2.558750     0.107768     1.380822        
   C     1.350571     0.074003     2.076761        
   C    -2.310559    -0.772551     1.485618        
   C    -1.996186    -2.049506     0.996498        
   C    -2.984304    -2.881435     0.475429        
   C    -4.323359    -2.474020     0.418820        
   C    -4.634523    -1.203263     0.913687        
   C    -3.649261    -0.366815     1.438870        
   C     0.109158    -4.736731     6.331598        
   C     0.483265    -5.979334     5.863031        
   C     0.624034    -6.359077     4.438241        
   C     1.034808    -7.779344     4.414935        
   C     1.144848    -8.259929     5.731370        
   C     0.808435    -7.156960     6.674459        
   C     1.522404    -9.589025     5.947251        
   C     1.774887   -10.383898     4.825042        
   C     1.665357    -9.902780     3.514892        
   C     1.288675    -8.577060     3.307742        
   C     3.903061     0.112231    -0.768904        
   C    -5.385065    -3.366380    -0.177749        
   O     0.440808    -5.653074     3.453031        
   C     0.818648    -7.275518     8.052933        
   C     1.154221    -8.484348     8.737397        
   N     1.420654    -9.448153     9.335212        
  Cl     2.249197   -12.052954     5.070179        
   H     1.873772   -10.563597     2.681366        
   C    -8.118544     6.603965     5.417361        
   C     1.657950     8.126124     6.354671        
   C     0.498357    -6.211038     8.951319        
   N     0.243469    -5.365440     9.711822        
   C    -4.141787    12.036986    -3.533917        
   N    -3.919211    11.182738    -4.294894        
   H    -4.731321    14.018017     3.110395        
   H    -5.120636    15.883906    -1.513335        
   H    -3.779126    10.441957    -1.993740        
   H    -3.241680     8.231823    -2.173749        
   H    -2.167545     3.484380     5.139301        
   H    -1.745698     2.270936     0.276434        
   H    -0.590179    -2.457559     7.588814        
   H     0.056227    -4.637871     7.409819        
   H     1.624994   -10.018560     6.933348        
   H     1.192068    -8.164446     2.308783        
   H    -4.829902     3.865737     3.526073        
   H    -0.606652     6.897292     7.283616        
   H    -2.459275     5.933462     5.995035        
   H     1.402660     7.924799     3.634433        
   H    -0.432854     6.938148     2.341431        
   H    -7.088712     4.285467     4.380174        
   H    -6.027311     8.360837     5.204027        
   H    -3.761448     7.942078     4.374019        
   H    -0.769962     0.011199    -0.566579        
   H     1.359214     0.090870    -1.783975        
   H     1.365804     0.079533     3.161645        
   H     3.491057     0.130928     1.939425        
   H    -3.933683     0.609332     1.816071        
   H    -5.665067    -0.857703     0.890358        
   H    -2.707172    -3.866331     0.108312        
   H    -0.968224    -2.397053     1.011623        
   H    -8.469608     7.610978     5.171901        
   H    -8.843151     5.886489     5.021975        
   H    -8.132447     6.514080     6.510718        
   H     2.602674     8.106024     5.803661        
   H     1.435682     9.176258     6.581647        
   H     1.810768     7.613978     7.309434        
   H    -5.193770    -4.420069     0.047238        
   H    -6.379536    -3.113759     0.200997        
   H    -5.417033    -3.269376    -1.270142        
   H     3.813609     0.628706    -1.729304        
   H     4.694338     0.600954    -0.193029        
   H     4.238735    -0.910658    -0.980352        
                                                   
  eps=4.57494                                      
  epsinf=4.57494                                   
  RSolv=7.71                                       
                                                   
                                                   
 
