%mem=800MW
%nprocshared=64
#p wB97XD/6-31g** opt td=(nstates=2,root=1) pop=esp scf=(MaxCycle=20000) nosymm iop(3/107=0003000000,3/108=0003000000) SCRF=(PCM,Solvent=Generic,Read)

IT-M

0  1
C          0.12056       -0.24754        0.01140
C          0.14356       -0.17826        1.41000
C          1.37675       -0.00206        2.06699
C          2.57546        0.09505        1.36755
C          2.53900        0.02075       -0.02711
C          1.32091       -0.14678       -0.71680
C          1.14946        0.05726        3.52970
C         -0.32337       -0.05807        3.73881
C         -0.93651       -0.27888        2.43108
C         -1.00380        0.11001        4.93916
C         -0.61936        0.29491        6.29576
S          1.01469        0.32509        6.99580
C          0.36043        0.53190        8.60281
C         -1.06033        0.58075        8.57094
C         -1.60630        0.45092        7.30095
C          0.87645        0.65378        9.89691
C         -0.15041        0.79555       10.85183
S         -1.76447        0.78505       10.17417
C          0.37525        0.92099       12.16211
C          1.80947        0.90456       12.04929
C          2.25101        0.71805       10.57425
C         -0.26739        1.03672       13.42089
C          0.52285        1.13709       14.54193
C          1.95693        1.13985       14.42745
C          2.59950        1.01752       13.16930
C          0.08129        1.22039       16.02583
C          1.45540        1.30929       16.70192
C          2.48232        1.27300       15.73723
S          4.09525        1.40399       16.40404
C          3.39058        1.50719       18.01698
C          1.97022        1.44479       17.99524
S          1.31548        1.53640       19.61294
C          2.94822        1.67261       20.30413
C          3.93552        1.63479       19.28770
C         -0.68056       -0.09093       16.35376
C         -2.05917       -0.20450       16.11557
C         -2.72933       -1.41261       16.32305
C         -2.05301       -2.55682       16.77300
C         -0.67172       -2.44225       16.99875
C          0.00177       -1.23756       16.78896
C         -2.78166       -3.86431       17.02635
C         -0.70370        2.51621       16.35959
C         -1.54396        2.58294       17.48276
C         -2.18852        3.77108       17.83079
C         -2.01571        4.94481       17.07936
C         -1.16166        4.87911       15.96799
C         -0.51486        3.69141       15.61646
C          3.32986        1.83236       21.66484
C          2.65052        1.90049       22.87562
C          1.18897        1.68669       23.08483
C          0.96267        1.69325       24.54844
C          2.18511        1.92352       25.20850
C          3.25721        2.10503       24.18946
C          2.20538        1.96419       26.60847
C          1.01396        1.77716       27.33426
C         -0.19325        1.55359       26.64129
C         -0.22740        1.51041       25.24540
C          3.00758        1.94661       10.00322
C          3.83301        1.82486        8.87387
C          4.45210        2.94196        8.31021
C          4.27008        4.22746        8.84535
C          3.43253        4.34715        9.96478
C          2.81074        3.23165       10.53117
C          3.04526       -0.61088       10.49095
C          4.42485       -0.64097       10.75434
C          5.12796       -1.84652       10.77439
C          4.48557       -3.07235       10.53422
C          3.10607       -3.03858       10.28037
C          2.39815       -1.83385       10.26305
O          0.33159        1.52114       22.22360
C          4.58031        2.45736       24.47940
C          5.57862        2.77914       23.50650
N          6.44609        3.07091       22.78115
H         -1.11167        1.41257       27.20072
C         -2.74566        6.22393       17.44753
C          4.97094        5.43241        8.24435
C          5.26060       -4.37772       10.52022
C         -2.27171       -0.59449        2.15336
C         -3.27645       -0.85184        3.13906
N         -4.14898       -1.09293        3.87717
O          2.01396        0.19134        4.38909
H          3.46408        0.09501       -0.58846
C          5.11122        2.58082       25.80202
N          5.62833        2.69523       26.84236
C         -2.80732       -0.74789        0.83657
N         -3.32008       -0.88092       -0.18406
H          3.51258        0.22438        1.89510
H         -0.80359       -0.37331       -0.53073
H         -2.08199        0.11497        4.85563
H         -2.66359        0.45563        7.07853
H          3.67785        1.01130       13.10338
H         -1.34569        1.03996       13.48756
H          4.99162        1.70881       19.50323
H          4.40569        1.90923       21.74038
H          3.12086        2.13276       27.15353
C          1.01842        1.81660       28.85123
H         -1.15619        1.34015       24.71482
H          2.16583        3.37879       11.38824
H          6.19410       -1.82675       10.97744
H          4.96405        0.27999       10.93795
H          2.56986       -3.96344       10.09372
H          1.33214       -1.86248       10.07542
H          3.25886        5.32290       10.40720
H          5.08357        2.80468        7.43837
H          4.00697        0.85396        8.42880
H         -2.62643        0.65143       15.77201
H         -3.79683       -1.45731       16.13209
H          1.06927       -1.20361       16.96657
H         -0.10842       -3.30392       17.34260
H          0.14240        3.69450       14.75585
H         -0.99197        5.76545       15.36502
H         -2.83331        3.77917       18.70376
H         -1.71036        1.70409       18.09157
H          5.01338        5.36485        7.15444
H          4.46558        6.36421        8.50650
H          6.00241        5.50304        8.60760
H          4.62710       -5.22285       10.79902
H          5.65909       -4.58085        9.51994
H          6.10733       -4.34798       11.20997
H         -2.74678        6.38386       18.52887
H         -2.28959        7.09745       16.97745
H         -3.79143        6.18096       17.12336
H         -3.78181       -3.85809       16.58880
H         -2.23512       -4.71244       16.60501
H         -2.89031       -4.04774       18.10071
C          1.31332       -0.21297       -2.23283
H          2.01538        2.00517       29.25082
H          0.35145        2.60193       29.21955
H          0.66193        0.86835       29.26501
H          0.31615       -0.41211       -2.62681
H          1.66348        0.73085       -2.66253
H          1.98347       -1.00016       -2.59032
                                                 
  eps=4.46238                                      
  epsinf=4.46238                                   
  RSolv=7.54                                       
    
