%mem=1000MW
%nprocshared=40
#p wB97XD/6-31g** nosymm pop=esp opt td=(triplet,nstates=3,root=2) scf=(MaxCycle=20000) iop(3/107=0001100000,3/108=0001100000) SCRF=(PCM,Solvent=Generic,Read)

 IT-4Cl opt-TDdft

0 1
C         -0.49095       -0.20852       -0.37033
C         -0.34699       -0.10265        1.02098
C          0.95585       -0.04796        1.54260
C          2.06892       -0.07748        0.70025
C          1.92929       -0.16731       -0.69436
C          0.62577       -0.23542       -1.20981
C         -1.57724       -0.17407        1.96312
C         -2.89500        0.20956        1.27885
C         -3.76434       -0.90359        1.21937
C         -3.15908       -2.05817        1.78714
C         -1.86049       -1.66960        2.25185
S         -5.31292       -0.56942        0.49240
C         -4.81217        1.10108        0.25905
C         -3.49537        1.34692        0.74073
C         -5.44713        2.21743       -0.29642
C         -4.62816        3.34680       -0.26794
S         -3.06743        3.02251        0.48779
C         -1.02977       -2.59626        2.85113
C         -1.51217       -3.91257        2.99553
C         -2.81353       -4.30073        2.54077
C         -3.63888       -3.38226        1.92991
C         -0.90513       -5.07981        3.57031
C         -1.74929       -6.18400        3.47304
C         -3.08036       -5.80372        2.81206
S          0.62273       -5.39465        4.35512
C          0.13321       -7.06900        4.56605
C         -1.15704       -7.32906        4.05027
S         -1.60672       -8.99303        4.27624
C         -0.05822       -9.33483        5.07180
C          0.74869       -8.18547        5.13759
C         -4.99959        4.72177       -0.63859
C         -4.78943        5.32706       -1.85247
C         -4.10685        4.61986       -3.00092
C         -4.00690        5.61532       -4.09659
C         -4.60922        6.82074       -3.66606
C         -5.10960        6.67160       -2.28897
C         -3.44866        5.45465       -5.35320
C         -3.47845        6.53563       -6.24742
C         -4.08017        7.74201       -5.84377
C         -4.64632        7.89412       -4.56874
Cl        -2.76256        6.33303       -7.83969
Cl        -4.15083        9.12141       -6.92932
O         -3.71683        3.46118       -3.02646
C         -5.78981        7.67992       -1.54042
C         -5.94361        9.02559       -1.97100
N         -6.09687       10.14959       -2.26602
C         -1.44983        0.67933        3.25490
C         -0.81924        1.93432        3.22894
C         -0.77437        2.74010        4.36800
C         -1.35892        2.33102        5.57823
C         -1.99860        1.08246        5.59609
C         -2.04825        0.27390        4.45723
C         -3.31155       -6.49951        1.44538
C         -4.59135       -6.55220        0.86971
C         -4.78704       -7.09937       -0.40020
C         -3.71593       -7.61240       -1.14982
C         -2.43693       -7.54536       -0.57612
C         -2.23690       -6.99654        0.69299
C         -4.21176       -6.03806        3.85168
C         -4.87652       -7.27311        3.93057
C         -5.83224       -7.51466        4.91935
C         -6.16081       -6.53874        5.87468
C         -5.48483       -5.31169        5.80062
C         -4.52665       -5.06671        4.81330
C          0.40412      -10.56307        5.64214
C         -0.09865      -11.84285        5.72979
C         -1.33226      -12.36493        5.07382
C         -1.28757      -13.84331        5.21942
C         -0.15055      -14.21262        5.95893
C          0.56820      -12.98152        6.38834
C          0.11018      -15.56941        6.17152
C         -0.77756      -16.52290        5.65489
C         -1.92728      -16.13309        4.93204
C         -2.18143      -14.77571        4.71014
C         -3.93712       -8.24212       -2.51358
C         -7.21959       -6.80242        6.93069
O         -2.20521      -11.72631        4.50428
C          1.59807      -12.94280        7.31278
C          2.18241      -14.10690        7.91355
N          2.70844      -15.00393        8.44058
Cl        -0.41466      -18.20954        5.93258
Cl        -3.04902      -17.30867        4.29304
C         -1.28046        3.20039        6.82034
C          3.14204       -0.15728       -1.60774
C          2.17858      -11.73884        7.83504
N          2.68707      -10.80690        8.31735
C         -6.40203        7.45808       -0.27794
N         -6.93293        7.33460        0.76039
H         -2.99783        4.51471       -5.64161
H         -5.09857        8.83992       -4.31842
H         -5.47617        5.26869        0.16555
H         -6.44339        2.23327       -0.71200
H         -0.04532       -2.32686        3.20457
H         -4.62216       -3.65263        1.57348
H          1.72912       -8.18423        5.59157
H          1.38285      -10.42210        6.08100
H          0.97750      -15.91795        6.70747
H         -3.05226      -14.46102        4.15188
H         -2.56351       -0.67569        4.52261
H          3.05894       -0.02509        1.14170
H          1.11476        0.02859        2.61080
H          0.47142       -0.31089       -2.28112
H         -1.47416       -0.27507       -0.81905
H         -2.46935        0.72923        6.50778
H         -0.27580        3.70194        4.30720
H         -0.34801        2.29089        2.32245
H         -5.45008       -6.17437        1.41029
H         -5.79213       -7.12676       -0.80887
H         -1.22867       -6.95584        1.08571
H         -1.57924       -7.92477       -1.12212
H         -4.02841       -4.10593        4.80760
H         -5.70331       -4.53105        6.52210
H         -6.32629       -8.48063        4.94311
H         -4.66227       -8.05405        3.21279
H         -1.42702        4.25590        6.57831
H         -2.03254        2.91497        7.55830
H         -0.29795        3.10749        7.29626
H          2.94021       -0.67123       -2.54996
H          3.43203        0.87123       -1.85003
H          4.00276       -0.63727       -1.13613
H         -7.06309       -7.76996        7.41575
H         -7.21697       -6.03261        7.70433
H         -8.21874       -6.82168        6.48254
H         -4.80681       -7.81318       -3.01615
H         -3.06908       -8.10720       -3.16281
H         -4.11107       -9.31964       -2.41698

  eps=4.88617
  epsinf=4.88617
  RSolv=8.36
 
