%mem=1000MW
%nprocshared=40
#p wB97XD/6-31g** nosymm pop=esp opt td=(nstates=2,root=1) scf=(MaxCycle=20000) iop(3/107=0016000000,3/108=0016000000) SCRF=(PCM,Solvent=Generic,Read)

 Y6 opt-TDdft

0 1
C          0.39202        1.00574        0.22999
C          0.38698        0.77892        1.61082
C          1.38178        1.37472        2.40790
C          2.38598        2.18119        1.88430
C          2.37893        2.40411        0.51163
C          1.39093        1.82284       -0.29676
C         -0.49808       -0.03712        2.48336
C         -0.09371        0.18571        3.85780
C          1.16159        0.99849        3.82646
C         -0.84687       -0.14035        4.99164
C         -0.59886       -0.09580        6.38283
S          0.97982        0.16754        7.15827
C          0.29422       -0.15796        8.72428
C         -1.09587       -0.39564        8.64403
C         -1.62384       -0.36481        7.35109
S         -1.84744       -0.66140       10.22979
C         -0.28356       -0.45046       10.97958
C          0.74588       -0.18270       10.05728
N          1.95200       -0.06363       10.72817
C          1.68422       -0.22915       12.08418
C          0.29670       -0.51242       12.26036
C          2.54456       -0.15076       13.22587
C          2.08624       -0.62561       14.49072
C          0.71296       -1.01061       14.66549
C         -0.20749       -0.88577       13.55336
N          3.85150        0.31225       13.35327
C          4.24128        0.07654       14.66207
C          3.17404       -0.50248       15.37518
C          5.38851        0.26920       15.45515
C          5.17934       -0.16773       16.78206
S          3.55365       -0.82698       17.04898
C          6.28104       -0.02515       17.62867
C          7.40072        0.53565       16.92695
S          6.99299        0.90797       15.23611
N         -1.46093       -1.20627       13.85648
S         -1.46494       -1.64366       15.45239
N          0.14160       -1.42900       15.78993
C          8.67390        0.66133       17.52800
C          9.88582        1.24237       17.13837
C         11.12905        1.17316       17.88113
C         12.04185        2.21282       17.33728
C         11.43429        2.80609       16.21513
C         10.09423        2.20117       16.00950
C         12.05026        3.79905       15.46128
C         13.31524        4.21664       15.86126
C         13.93079        3.64193       16.98322
C         13.31571        2.63849       17.72951
F         15.14827        4.07656       17.34358
F         13.96180        5.17717       15.18036
C         11.47197        0.24097       18.87139
C         12.68244        0.29083       19.62687
N         13.64594        0.28308       20.28655
O          9.32186        2.46446       15.09847
C          6.29522       -0.41126       19.08605
C          4.51211        1.32288       12.51265
C          3.24208       -0.27440       10.05410
C         -3.07593       -0.59208        7.01490
O          1.87061        1.31936        4.76991
C         -1.47796       -0.92946        2.02489
C         -1.88506       -1.02848        0.66008
N         -2.27030       -1.14804       -0.43576
F          3.31551        3.18112       -0.05672
F          1.41426        2.06462       -1.61669
C         10.69610       -0.91555       19.19005
N         10.13564       -1.89726       19.48257
C         -2.12796       -1.89980        2.84753
N         -2.67680       -2.73788        3.44735
H         13.84571        2.24334       18.58172
H         11.57316        4.23922       14.59595
H          8.69111        0.21390       18.51304
H          6.69728        0.39151       19.70792
H          6.90033       -1.30529       19.25281
H          5.28730       -0.62388       19.44148
H          4.82172        2.15845       13.13915
H          3.80416        1.70558       11.78449
H          5.38255        0.90881       12.00552
H          3.12021       -1.03781        9.28673
H          3.96821       -0.64464       10.77078
H          3.60557        0.64432        9.59566
H         -3.45484        0.17631        6.33777
H         -3.69149       -0.56834        7.91383
H         -3.22282       -1.56485        6.53959
H         -1.84826       -0.49065        4.77725
H          3.14750        2.62538        2.51117
H         -0.33751        0.59407       -0.44966

  eps=3.36
  epsinf=3.36
  RSolv=7.28

