%mem=1000MW
%nprocshared=40
#p wB97XD/6-31g** nosymm pop=esp opt td=(triplet,nstates=3,root=2) scf=(MaxCycle=20000) iop(3/107=0016000000,3/108=0016000000) SCRF=(PCM,Solvent=Generic,Read)

 Y6 opt-TDdft

0 1
C          0.33661        1.07737        0.24093
C          0.35617        0.80801        1.61367
C          1.38265        1.34972        2.40680
C          2.39855        2.14290        1.88592
C          2.36904        2.40679        0.52080
C          1.34694        1.88146       -0.28350
C         -0.53297       -0.01144        2.48373
C         -0.09435        0.17146        3.85897
C          1.17613        0.94547        3.82188
C         -0.83636       -0.16381        4.99645
C         -0.57733       -0.13491        6.38396
S          1.00321        0.13986        7.15125
C          0.32680       -0.19024        8.72358
C         -1.06797       -0.44220        8.64271
C         -1.59827       -0.41507        7.35904
S         -1.81633       -0.72496       10.23177
C         -0.25122       -0.50558       10.97939
C          0.78224       -0.21722       10.04179
N          1.98642       -0.08554       10.70796
C          1.72655       -0.26037       12.07431
C          0.32147       -0.56648       12.24286
C          2.55840       -0.14215       13.19826
C          2.09197       -0.59279       14.49249
C          0.71816       -0.98959       14.66706
C         -0.19017       -0.91694       13.54335
N          3.87993        0.30792       13.32959
C          4.25959        0.08643       14.64076
C          3.16625       -0.47310       15.36387
C          5.39251        0.27629       15.43245
C          5.17342       -0.13767       16.77301
S          3.53603       -0.77640       17.04534
C          6.26430        0.00653       17.62038
C          7.39736        0.54707       16.91670
S          7.00847        0.89562       15.21687
N         -1.43990       -1.24785       13.84080
S         -1.45768       -1.63597       15.45249
N          0.14463       -1.38206       15.79706
C          8.66352        0.67587       17.52651
C          9.88312        1.23867       17.13689
C         11.11563        1.18140       17.90682
C         12.03879        2.21277       17.35769
C         11.45564        2.76803       16.20504
C         10.11678        2.15753       15.98955
C         12.08472        3.74296       15.43893
C         13.33686        4.17953       15.85915
C         13.92713        3.64333       17.01317
C         13.29836        2.65811       17.77192
F         15.13198        4.09772       17.39222
F         13.99472        5.12359       15.16711
C         11.44687        0.26965       18.90919
C         12.66086        0.31759       19.66290
N         13.62493        0.30648       20.32055
O          9.36649        2.40209       15.05328
C          6.26819       -0.35754       19.08435
C          4.53494        1.32608       12.49285
C          3.27457       -0.31473       10.03514
C         -3.05088       -0.65180        7.02738
O          1.91489        1.23048        4.75601
C         -1.53149       -0.86624        2.01716
C         -1.94193       -0.93897        0.64953
N         -2.33122       -1.03988       -0.44606
F          3.31660        3.17205       -0.04411
F          1.34849        2.16527       -1.59552
C         10.65674       -0.87287       19.25143
N         10.08747       -1.84240       19.56412
C         -2.21352       -1.82831        2.82672
N         -2.78933       -2.65834        3.41092
H         13.80676        2.29273       18.65017
H         11.62689        4.15622       14.55027
H          8.66565        0.25422       18.52324
H          6.65321        0.46054       19.69708
H          6.88250       -1.24077       19.27141
H          5.25946       -0.57737       19.43317
H          4.83517        2.16577       13.11906
H          3.82651        1.70060       11.76062
H          5.41057        0.91940       11.98850
H          3.14951       -1.08706        9.27673
H          3.99878       -0.67846       10.75742
H          3.64428        0.59613        9.56601
H         -3.44061        0.12247        6.36323
H         -3.66169       -0.64451        7.92991
H         -3.19216       -1.61941        6.54091
H         -1.84295       -0.50321        4.78918
H          3.18525        2.54647        2.50916
H         -0.41956        0.70827       -0.43399

  eps=3.36
  epsinf=3.36
  RSolv=7.28

