%mem=1000MW
%nprocshared=40
#p wB97XD/6-31g** nosymm pop=esp opt td=(nstates=2,root=1) scf=(MaxCycle=20000) iop(3/107=0001100000,3/108=0001100000) SCRF=(PCM,Solvent=Generic,Read)

 IT4CL

0  1
C        0.214990000      0.384024000      0.858265000
C        0.106716000      0.273743000      2.252919000
C        1.294792000      0.221286000      2.999409000
C        2.541269000      0.298323000      2.374201000
C        2.653877000      0.429187000      0.980957000
C        1.463334000      0.465345000      0.237443000
C       -1.269824000      0.098691000      2.942156000
C       -2.452960000      0.583025000      2.094370000
C       -3.316122000     -0.493721000      1.789378000
C       -2.812072000     -1.717944000      2.307691000
C       -1.594667000     -1.415557000      3.000016000
S       -4.729393000     -0.046107000      0.873122000
C       -4.173675000      1.623171000      0.882315000
C       -2.941643000      1.782583000      1.576740000
C       -4.697101000      2.805336000      0.346356000
C       -3.857361000      3.895209000      0.577603000
S       -2.442817000      3.456964000      1.536380000
C       -0.865003000     -2.425793000      3.595612000
C       -1.366869000     -3.739726000      3.504567000
C       -2.589990000     -4.042077000      2.824328000
C       -3.314360000     -3.037847000      2.219889000
C       -0.849244000     -4.981204000      4.005626000
C       -1.671806000     -6.048130000      3.649872000
C       -2.892251000     -5.562776000      2.857630000
S        0.552425000     -5.421994000      4.948689000
C        0.036220000     -7.100314000      4.874328000
C       -1.168896000     -7.267818000      4.153717000
S       -1.645611000     -8.937604000      4.093870000
C       -0.224199000     -9.409013000      5.045448000
C        0.564665000     -8.292657000      5.375578000
C       -4.137238000      5.308612000      0.274034000
C       -3.854658000      5.955882000     -0.902580000
C       -3.117224000      5.278232000     -2.034652000
C       -3.013000000      6.284143000     -3.119777000
C       -3.633763000      7.479391000     -2.687216000
C       -4.149860000      7.313788000     -1.317384000
C       -2.432300000      6.141109000     -4.368296000
C       -2.459681000      7.229779000     -5.253206000
C       -3.077942000      8.426957000     -4.847161000
C       -3.664512000      8.561847000     -3.579404000
Cl      -1.720470000      7.047719000     -6.837069000
Cl      -3.143567000      9.816315000     -5.920051000
O       -2.691283000      4.132156000     -2.055071000
C       -4.815500000      8.320968000     -0.555895000
C       -5.021019000      9.654589000     -1.003010000
N       -5.218364000     10.768225000     -1.310489000
C       -1.384764000      0.788282000      4.331320000
C       -0.757976000      2.021086000      4.578060000
C       -0.929350000      2.682882000      5.794856000
C       -1.736823000      2.148473000      6.813169000
C       -2.370399000      0.923359000      6.557591000
C       -2.202708000      0.258193000      5.339923000
C       -2.917585000     -6.067616000      1.390753000
C       -4.096918000     -6.007231000      0.630397000
C       -4.103453000     -6.366015000     -0.718901000
C       -2.934735000     -6.797850000     -1.367034000
C       -1.757064000     -6.848569000     -0.605727000
C       -1.746003000     -6.487417000      0.744214000
C       -4.166532000     -5.910528000      3.676026000
C       -4.839194000     -7.127607000      3.484295000
C       -5.937493000     -7.476375000      4.274576000
C       -6.406013000     -6.629414000      5.290943000
C       -5.721084000     -5.419940000      5.489709000
C       -4.622264000     -5.068401000      4.702653000
C        0.153289000    -10.710679000      5.503807000
C       -0.353013000    -11.981854000      5.339725000
C       -1.469812000    -12.388189000      4.438514000
C       -1.439949000    -13.873143000      4.381513000
C       -0.430223000    -14.359578000      5.229857000
C        0.214305000    -13.211006000      5.923871000
C       -0.207183000    -15.737757000      5.300441000
C       -1.003490000    -16.596864000      4.531253000
C       -2.023796000    -16.091596000      3.694532000
C       -2.241702000    -14.711918000      3.619123000
C       -2.951296000     -7.217950000     -2.826063000
C       -7.622621000     -6.992550000      6.123629000
O       -2.249911000    -11.663464000      3.838002000
C        1.103146000    -13.315564000      6.980430000
C        1.611021000    -14.558888000      7.484046000
N        2.070459000    -15.526480000      7.944353000
Cl      -0.691309000    -18.312759000      4.639011000
Cl      -3.027636000    -17.149931000      2.734845000
C       -1.896563000      2.866428000      8.141296000
C        4.006463000      0.561113000      0.304105000
C        1.592250000    -12.204792000      7.745980000
N        2.017354000    -11.357246000      8.424754000
C       -5.348252000      8.118037000      0.745473000
N       -5.811100000      8.013282000      1.817822000
H       -1.966002000      5.208961000     -4.657418000
H       -4.128126000      9.501393000     -3.326525000
H       -4.690560000      5.816470000      1.054237000
H       -5.622808000      2.891097000     -0.202223000
H        0.059956000     -2.223557000      4.115242000
H       -4.237208000     -3.239951000      1.696503000
H        1.473024000     -8.368944000      5.955892000
H        1.058729000    -10.648294000      6.092558000
H        0.562887000    -16.170910000      5.917158000
H       -3.013935000    -14.309123000      2.978405000
H       -2.722343000     -0.679299000      5.190335000
H        3.436312000      0.262138000      2.986948000
H        1.258915000      0.130614000      4.077853000
H        1.504625000      0.562454000     -0.842536000
H       -0.672171000      0.407561000      0.237843000
H       -3.008787000      0.476993000      7.313033000
H       -0.426296000      3.632083000      5.948093000
H       -0.123280000      2.471466000      3.826344000
H       -5.024177000     -5.683914000      1.086378000
H       -5.036851000     -6.308123000     -1.269660000
H       -0.807358000     -6.529789000      1.282282000
H       -0.829968000     -7.172841000     -1.067330000
H       -4.124584000     -4.128121000      4.902688000
H       -6.045401000     -4.736869000      6.268248000
H       -6.430976000     -8.425404000      4.091781000
H       -4.520545000     -7.813192000      2.710122000
H       -2.075204000      3.934829000      7.994046000
H       -2.727952000      2.461097000      8.720863000
H       -0.988838000      2.768402000      8.746527000
H        4.027132000      0.035494000     -0.653727000
H        4.234902000      1.613746000      0.103982000
H        4.809171000      0.162388000      0.927814000
H       -7.722884000     -8.074088000      6.238469000
H       -7.571409000     -6.548923000      7.120434000
H       -8.539531000     -6.626172000      5.648484000
H       -3.711567000     -6.673701000     -3.390927000
H       -1.984784000     -7.043386000     -3.304150000
H       -3.174819000     -8.286567000     -2.919997000

eps=4.88617
epsinf=4.88617
RSolv=8.36
