%mem=1000MW
%nprocshared=40
#p wB97XD/6-31g** nosymm pop=esp opt td=(nstates=2,root=1) scf=(MaxCycle=20000) iop(3/107=0001100000,3/108=0001100000) SCRF=(PCM,Solvent=Generic,Read)

 IT4CL

0  1
C        0.679143000      0.267407000      0.985580000
C        0.454812000      0.181585000      2.367878000
C        1.577572000      0.111087000      3.208166000
C        2.872134000      0.148351000      2.684823000
C        3.100514000      0.254363000      1.303616000
C        1.975008000      0.307246000      0.465951000
C       -0.979436000      0.052488000      2.941956000
C       -2.067417000      0.551192000      1.982023000
C       -2.902808000     -0.512733000      1.586797000
C       -2.480898000     -1.740261000      2.157185000
C       -1.340527000     -1.455180000      2.986709000
S       -4.210169000     -0.043039000      0.524526000
C       -3.634199000      1.620770000      0.590815000
C       -2.487357000      1.761875000      1.422350000
C       -4.079432000      2.795587000     -0.008888000
C       -3.281087000      3.901381000      0.341332000
S       -1.964897000      3.422969000      1.449115000
C       -0.710543000     -2.464583000      3.676647000
C       -1.224392000     -3.779623000      3.544582000
C       -2.363353000     -4.064640000      2.713058000
C       -2.991730000     -3.055574000      2.021271000
C       -0.810886000     -5.006552000      4.123613000
C       -1.607672000     -6.079825000      3.677129000
C       -2.700405000     -5.578603000      2.724703000
S        0.446450000     -5.466500000      5.250190000
C       -0.091888000     -7.140324000      5.124326000
C       -1.201707000     -7.290784000      4.248266000
S       -1.690940000     -8.963692000      4.139235000
C       -0.408027000     -9.449149000      5.270985000
C        0.349420000     -8.327490000      5.693002000
C       -3.382858000      5.280497000      0.011250000
C       -4.011042000      5.926295000     -1.051827000
C       -4.467493000      5.308120000     -2.335583000
C       -4.666416000      6.441151000     -3.284876000
C       -4.440748000      7.659901000     -2.619543000
C       -4.116984000      7.373178000     -1.196920000
C       -5.011532000      6.376169000     -4.625638000
C       -5.125790000      7.574389000     -5.344928000
C       -4.894297000      8.803963000     -4.696427000
C       -4.556773000      8.854409000     -3.334154000
Cl      -5.552273000      7.494838000     -7.039738000
Cl      -5.015608000     10.320913000     -5.561466000
O       -4.619819000      4.125191000     -2.608525000
C       -4.033009000      8.325973000     -0.178396000
C       -4.094213000      9.737991000     -0.395533000
N       -4.128003000     10.900565000     -0.500897000
C       -1.191481000      0.765608000      4.305354000
C       -0.550169000      1.981844000      4.593657000
C       -0.810112000      2.669678000      5.780329000
C       -1.724769000      2.177699000      6.726332000
C       -2.371512000      0.968478000      6.429622000
C       -2.114974000      0.277910000      5.242390000
C       -2.543130000     -6.105321000      1.274914000
C       -3.604817000     -6.024488000      0.358574000
C       -3.435504000     -6.402402000     -0.974678000
C       -2.201656000     -6.875158000     -1.451278000
C       -1.141689000     -6.946727000     -0.534522000
C       -1.306441000     -6.565844000      0.799477000
C       -4.076706000     -5.883009000      3.376154000
C       -4.765728000     -7.074535000      3.099641000
C       -5.964842000     -7.379939000      3.748234000
C       -6.521787000     -6.514830000      4.703591000
C       -5.820237000     -5.333142000      4.990605000
C       -4.621491000     -5.024556000      4.344426000
C       -0.101115000    -10.744606000      5.768425000
C       -0.598777000    -12.025753000      5.550887000
C       -1.632619000    -12.413936000      4.553492000
C       -1.682530000    -13.900290000      4.552703000
C       -0.773926000    -14.395699000      5.505189000
C       -0.120351000    -13.248176000      6.193972000
C       -0.644495000    -15.779073000      5.657038000
C       -1.424670000    -16.629971000      4.858436000
C       -2.336682000    -16.114261000      3.915680000
C       -2.466142000    -14.727118000      3.762886000
C       -2.029608000     -7.316598000     -2.893741000
C       -7.844093000     -6.832639000      5.378311000
O       -2.312278000    -11.678498000      3.848540000
C        0.741277000    -13.366568000      7.288539000
C        1.204298000    -14.613888000      7.814165000
N        1.633076000    -15.588313000      8.294235000
Cl      -1.226077000    -18.355741000      5.073526000
Cl      -3.320450000    -17.161737000      2.918448000
C       -1.987657000      2.922459000      8.023014000
C        4.506362000      0.341568000      0.736749000
C        1.245198000    -12.270265000      8.057927000
N        1.684074000    -11.434358000      8.745759000
C       -3.951214000      8.007589000      1.215174000
N       -3.909410000      7.826964000      2.368216000
H       -5.185924000      5.424166000     -5.108209000
H       -4.386126000      9.818777000     -2.884457000
H       -2.814406000      5.926287000      0.669518000
H       -4.934439000      2.877901000     -0.657251000
H        0.145461000     -2.270988000      4.306563000
H       -3.849092000     -3.248131000      1.392936000
H        1.173013000     -8.412280000      6.387127000
H        0.726935000    -10.689515000      6.461445000
H        0.037713000    -16.225021000      6.361612000
H       -3.160606000    -14.313567000      3.044334000
H       -2.648225000     -0.645656000      5.057318000
H        3.712914000      0.099164000      3.369480000
H        1.451816000      0.034058000      4.280897000
H        2.105871000      0.383573000     -0.608678000
H       -0.155384000      0.300718000      0.296359000
H       -3.090466000      0.555446000      7.129868000
H       -0.293101000      3.605674000      5.965769000
H        0.165621000      2.398893000      3.897327000
H       -4.576945000     -5.670660000      0.678784000
H       -4.281201000     -6.327922000     -1.651023000
H       -0.453662000     -6.626586000      1.463782000
H       -0.169510000     -7.302784000     -0.860249000
H       -4.115308000     -4.105010000      4.609055000
H       -6.208979000     -4.639241000      5.729125000
H       -6.468091000     -8.309750000      3.503640000
H       -4.377834000     -7.773428000      2.370140000
H       -2.112510000      3.994100000      7.846588000
H       -2.887483000      2.555772000      8.520548000
H       -1.150774000      2.802053000      8.719608000
H        4.587838000     -0.189078000     -0.215045000
H        4.783244000      1.385720000      0.553160000
H        5.243871000     -0.078304000      1.423982000
H       -7.970604000     -7.907756000      5.525534000
H       -7.925400000     -6.345756000      6.352425000
H       -8.683811000     -6.485198000      4.765752000
H       -2.700788000     -6.771951000     -3.561632000
H       -1.005948000     -7.159059000     -3.241089000
H       -2.251850000     -8.384006000     -3.002715000

eps=4.88617
epsinf=4.88617
RSolv=8.36
