%mem=1000MW
%nprocshared=40
#p wB97XD/6-31g** nosymm pop=esp opt td=(nstates=2,root=1) scf=(MaxCycle=20000) iop(3/107=0001100000,3/108=0001100000) SCRF=(PCM,Solvent=Generic,Read)

 IT4CL

0  1
C        0.793880000      0.214114000      0.999999000
C        0.516181000      0.146454000      2.373516000
C        1.605471000      0.076950000      3.257046000
C        2.919261000      0.095174000      2.783695000
C        3.201346000      0.180538000      1.410860000
C        2.109468000      0.234834000      0.530266000
C       -0.938935000      0.032616000      2.896142000
C       -1.991065000      0.521936000      1.892268000
C       -2.816208000     -0.544652000      1.482557000
C       -2.419052000     -1.765569000      2.083824000
C       -1.307437000     -1.473036000      2.949231000
S       -4.088236000     -0.084845000      0.373908000
C       -3.514945000      1.580035000      0.444953000
C       -2.391018000      1.727376000      1.306944000
C       -3.950304000      2.750115000     -0.168902000
C       -3.166426000      3.862743000      0.197977000
S       -1.873218000      3.388380000      1.338300000
C       -0.704674000     -2.475250000      3.673014000
C       -1.215862000     -3.791169000      3.537833000
C       -2.328416000     -4.082832000      2.673334000
C       -2.930047000     -3.080915000      1.948335000
C       -0.820270000     -5.013153000      4.138512000
C       -1.603849000     -6.090308000      3.676643000
C       -2.671214000     -5.595385000      2.692515000
S        0.406989000     -5.465130000      5.300565000
C       -0.125553000     -7.140494000      5.169409000
C       -1.211746000     -7.297213000      4.265000000
S       -1.695343000     -8.971567000      4.151644000
C       -0.441589000     -9.449221000      5.318625000
C        0.302639000     -8.323958000      5.755101000
C       -3.254725000      5.243356000     -0.123618000
C       -3.988938000      5.943341000     -1.081565000
C       -4.708664000      5.386544000     -2.267454000
C       -5.005089000      6.549091000     -3.151975000
C       -4.568982000      7.734772000     -2.534871000
C       -4.014046000      7.398489000     -1.196750000
C       -5.607189000      6.535478000     -4.400382000
C       -5.771415000      7.753020000     -5.076033000
C       -5.327056000      8.949520000     -4.478545000
C       -4.728809000      8.948125000     -3.208161000
Cl      -6.526509000      7.737571000     -6.654072000
Cl      -5.501793000     10.488766000     -5.293518000
O       -4.994032000      4.223223000     -2.521870000
C       -3.682216000      8.331576000     -0.210590000
C       -3.672739000      9.746513000     -0.418802000
N       -3.632927000     10.909491000     -0.517388000
C       -1.195622000      0.767121000      4.240405000
C       -0.561983000      1.987302000      4.529555000
C       -0.860840000      2.695946000      5.694477000
C       -1.808215000      2.221394000      6.617078000
C       -2.445752000      1.007518000      6.320043000
C       -2.150419000      0.296011000      5.154103000
C       -2.483516000     -6.139069000      1.253009000
C       -3.524894000     -6.069004000      0.312978000
C       -3.326541000     -6.462340000     -1.011903000
C       -2.082573000     -6.939841000     -1.456175000
C       -1.042667000     -7.000251000     -0.515821000
C       -1.236500000     -6.604093000      0.809684000
C       -4.063254000     -5.886741000      3.317053000
C       -4.750592000     -7.079275000      3.040725000
C       -5.964551000     -7.372208000      3.667123000
C       -6.538586000     -6.493351000      4.599515000
C       -5.838904000     -5.310610000      4.886841000
C       -4.625508000     -5.014382000      4.262685000
C       -0.143401000    -10.741909000      5.828423000
C       -0.632409000    -12.025289000      5.604453000
C       -1.648625000    -12.418475000      4.590912000
C       -1.699169000    -13.904641000      4.596757000
C       -0.805392000    -14.395553000      5.565426000
C       -0.163143000    -13.244901000      6.259773000
C       -0.677398000    -15.778204000      5.724847000
C       -1.445051000    -16.632935000      4.918270000
C       -2.343502000    -16.121606000      3.960130000
C       -2.470738000    -14.735218000      3.799033000
C       -1.878487000     -7.398289000     -2.889114000
C       -7.876881000     -6.797312000      5.248618000
O       -2.315843000    -11.686288000      3.870849000
C        0.682565000    -13.359173000      7.367109000
C        1.137310000    -14.604639000      7.904361000
N        1.558753000    -15.577111000      8.394760000
Cl      -1.248462000    -18.357609000      5.143269000
Cl      -3.313421000    -17.173710000      2.954324000
C       -2.116942000      2.992170000      7.888193000
C        4.629315000      0.243480000      0.898720000
C        1.177416000    -12.260301000      8.138696000
N        1.608400000    -11.422156000      8.828784000
C       -3.380527000      8.001897000      1.149467000
N       -3.150202000      7.817650000      2.279518000
H       -5.942150000      5.608522000     -4.845503000
H       -4.400701000      9.887886000     -2.795141000
H       -2.595996000      5.859628000      0.474780000
H       -4.779890000      2.831464000     -0.850062000
H        0.129554000     -2.275821000      4.329670000
H       -3.765057000     -3.279465000      1.292380000
H        1.108100000     -8.404042000      6.470690000
H        0.667807000    -10.681648000      6.540529000
H       -0.005373000    -16.220676000      6.441308000
H       -3.154691000    -14.325065000      3.068556000
H       -2.678387000     -0.630220000      4.967094000
H        3.732567000      0.046080000      3.500700000
H        1.439696000      0.013558000      4.325188000
H        2.281469000      0.296390000     -0.539522000
H       -0.013140000      0.247333000      0.278790000
H       -3.188093000      0.607109000      7.003015000
H       -0.348976000      3.634503000      5.881110000
H        0.177591000      2.391565000      3.850710000
H       -4.503804000     -5.711663000      0.607520000
H       -4.157215000     -6.395924000     -1.707389000
H       -0.398518000     -6.656665000      1.493194000
H       -0.063356000     -7.359354000     -0.815838000
H       -4.121955000     -4.093175000      4.526368000
H       -6.240521000     -4.606432000      5.608551000
H       -6.466038000     -8.303146000      3.423212000
H       -4.350284000     -7.788344000      2.327974000
H       -2.265191000      4.055366000      7.680654000
H       -3.017444000      2.615540000      8.376929000
H       -1.292031000      2.912469000      8.604523000
H        4.734305000     -0.271195000     -0.059389000
H        4.938897000      1.283526000      0.746447000
H        5.329938000     -0.207535000      1.604710000
H       -8.014159000     -7.870514000      5.399989000
H       -7.974994000     -6.303493000      6.217706000
H       -8.700841000     -6.447929000      4.616113000
H       -2.543953000     -6.871503000     -3.576702000
H       -0.850495000     -7.232434000     -3.219468000
H       -2.085216000     -8.469839000     -2.987408000

eps=4.88617
epsinf=4.88617
RSolv=8.36
