%mem=1000MW
%nprocshared=40
#p wB97XD/6-31g** nosymm pop=esp opt td=(nstates=2,root=1) scf=(MaxCycle=20000) iop(3/107=0001100000,3/108=0001100000) SCRF=(PCM,Solvent=Generic,Read)

 IT4CL

0  1
C        0.839579000      0.168098000      1.050302000
C        0.517703000      0.128700000      2.415086000
C        1.577611000      0.068838000      3.334682000
C        2.905710000      0.065669000      2.903997000
C        3.232256000      0.118834000      1.539048000
C        2.170104000      0.167335000      0.623101000
C       -0.953672000      0.028343000      2.892762000
C       -1.973326000      0.507846000      1.851621000
C       -2.794711000     -0.559312000      1.435943000
C       -2.419119000     -1.774289000      2.063215000
C       -1.328895000     -1.475225000      2.953494000
S       -4.031773000     -0.107710000      0.284949000
C       -3.446756000      1.553991000      0.343949000
C       -2.345151000      1.705904000      1.233505000
C       -3.855721000      2.717278000     -0.300569000
C       -3.068687000      3.828838000      0.064725000
S       -1.813378000      3.361431000      1.251261000
C       -0.743996000     -2.471373000      3.699683000
C       -1.249773000     -3.788785000      3.560392000
C       -2.343616000     -4.086701000      2.674524000
C       -2.928536000     -3.090415000      1.928144000
C       -0.859153000     -5.007907000      4.169489000
C       -1.627938000     -6.089894000      3.693764000
C       -2.685053000     -5.599653000      2.695860000
S        0.355035000     -5.452794000      5.347546000
C       -0.161068000     -7.132117000      5.203353000
C       -1.233707000     -7.295287000      4.283892000
S       -1.698652000     -8.974134000      4.156637000
C       -0.454486000     -9.444679000      5.336611000
C        0.271774000     -8.313887000      5.788719000
C       -3.115234000      5.205383000     -0.282782000
C       -3.922173000      5.949698000     -1.144632000
C       -4.862417000      5.442661000     -2.189795000
C       -5.219504000      6.618856000     -3.031370000
C       -4.602655000      7.772146000     -2.516126000
C       -3.854428000      7.403144000     -1.284181000
C       -6.018147000      6.640954000     -4.164105000
C       -6.202452000      7.862083000     -4.827491000
C       -5.581351000      9.026204000     -4.332667000
C       -4.785189000      8.989563000     -3.176701000
Cl      -7.203979000      7.891621000     -6.261912000
Cl      -5.774209000     10.568514000     -5.137759000
O       -5.268808000      4.302446000     -2.377738000
C       -3.283650000      8.320312000     -0.396546000
C       -3.200672000      9.726916000     -0.642623000
N       -3.086160000     10.881374000     -0.776745000
C       -1.249350000      0.780520000      4.219354000
C       -0.620307000      2.002082000      4.512786000
C       -0.950054000      2.724836000      5.660498000
C       -1.924528000      2.263238000      6.561267000
C       -2.557527000      1.048150000      6.259708000
C       -2.231601000      0.322714000      5.110436000
C       -2.484557000     -6.149964000      1.261041000
C       -3.519948000     -6.092912000      0.313634000
C       -3.309602000     -6.492456000     -1.007584000
C       -2.059076000     -6.963123000     -1.440550000
C       -1.024996000     -7.009922000     -0.492952000
C       -1.230849000     -6.607621000      0.828839000
C       -4.082288000     -5.889058000      3.310542000
C       -4.762596000     -7.087071000      3.040489000
C       -5.980247000     -7.378847000      3.660205000
C       -6.565160000     -6.493349000      4.579461000
C       -5.873003000     -5.304572000      4.860014000
C       -4.655991000     -5.009425000      4.242447000
C       -0.145616000    -10.737073000      5.840868000
C       -0.615404000    -12.024992000      5.603038000
C       -1.620271000    -12.423238000      4.580102000
C       -1.653625000    -13.909858000      4.575868000
C       -0.760445000    -14.396798000      5.547076000
C       -0.134964000    -13.243591000      6.252426000
C       -0.618279000    -15.778870000      5.699267000
C       -1.371686000    -16.637221000      4.883249000
C       -2.269870000    -16.129993000      3.922584000
C       -2.411123000    -14.744176000      3.768555000
C       -1.842031000     -7.428700000     -2.869285000
C       -7.906981000     -6.796524000      5.221610000
O       -2.291722000    -11.693860000      3.861124000
C        0.707408000    -13.355977000      7.362374000
C        1.173369000    -14.599994000      7.893503000
N        1.603219000    -15.570900000      8.379644000
Cl      -1.157835000    -18.360882000      5.099675000
Cl      -3.222736000    -17.186760000      2.905541000
C       -2.265341000      3.049307000      7.814705000
C        4.677496000      0.151134000      1.074594000
C        1.188183000    -12.257096000      8.142846000
N        1.608537000    -11.419291000      8.839840000
C       -2.765058000      7.993712000      0.897058000
N       -2.344715000      7.819034000      1.972698000
H       -6.485817000      5.737636000     -4.531302000
H       -4.331035000      9.906976000     -2.840491000
H       -2.367332000      5.788431000      0.237917000
H       -4.666243000      2.798651000     -1.005061000
H        0.075487000     -2.266885000      4.373075000
H       -3.747280000     -3.294566000      1.253706000
H        1.069496000     -8.389160000      6.513434000
H        0.657323000    -10.671289000      6.561720000
H        0.054199000    -16.218014000      6.417358000
H       -3.095121000    -14.337289000      3.036297000
H       -2.757092000     -0.604007000      4.918815000
H        3.695528000      0.023234000      3.647097000
H        1.377276000      0.028996000      4.398060000
H        2.376374000      0.205161000     -0.441735000
H        0.056070000      0.194243000      0.303389000
H       -3.319770000      0.657197000      6.926020000
H       -0.440618000      3.663918000      5.851002000
H        0.140414000      2.396280000      3.851836000
H       -4.503339000     -5.740699000      0.599271000
H       -4.135918000     -6.436273000     -1.709112000
H       -0.397183000     -6.649440000      1.518375000
H       -0.040830000     -7.362888000     -0.784247000
H       -4.158631000     -4.083306000      4.500452000
H       -6.283275000     -4.594985000      5.571489000
H       -6.475999000     -8.314228000      3.421665000
H       -4.354044000     -7.801248000      2.337619000
H       -2.418309000      4.108178000      7.588938000
H       -3.172010000      2.671847000      8.291243000
H       -1.453945000      2.987320000      8.547922000
H        4.793753000     -0.316683000      0.094252000
H        5.034586000      1.183647000      0.989452000
H        5.335566000     -0.366493000      1.776162000
H       -8.045154000     -7.869488000      5.373603000
H       -8.010306000     -6.301451000      6.189554000
H       -8.727410000     -6.447761000      4.584196000
H       -2.503265000     -6.907407000     -3.565135000
H       -0.811785000     -7.262020000     -3.192039000
H       -2.045360000     -8.501272000     -2.963443000

eps=4.88617
epsinf=4.88617
RSolv=8.36
