%mem=1000MW
%nprocshared=40
#p wB97XD/6-31g** nosymm pop=esp opt td=(nstates=2,root=1) scf=(MaxCycle=20000) iop(3/107=0001100000,3/108=0001100000) SCRF=(PCM,Solvent=Generic,Read)

 IT4CL

0  1
C       -0.026472000     -0.006546000      0.087940000
C        0.016126000     -0.009346000      1.489675000
C        1.278557000     -0.061895000      2.103645000
C        2.448733000     -0.093017000      1.342638000
C        2.409957000     -0.075232000     -0.061408000
C        1.146799000     -0.033958000     -0.670501000
C       -1.284090000     -0.074908000      2.334224000
C       -2.532638000      0.356323000      1.554643000
C       -3.403244000     -0.736284000      1.371920000
C       -2.870333000     -1.921389000      1.939086000
C       -1.617553000     -1.573850000      2.555620000
S       -4.880530000     -0.342932000      0.520826000
C       -4.336713000      1.328979000      0.405716000
C       -3.066607000      1.531021000      1.012948000
C       -4.896608000      2.476401000     -0.143574000
C       -4.054119000      3.605815000     -0.015951000
S       -2.558905000      3.192021000      0.848881000
C       -0.872972000     -2.528786000      3.208130000
C       -1.375114000     -3.854462000      3.241624000
C       -2.618800000     -4.205369000      2.608577000
C       -3.368131000     -3.248680000      1.964724000
C       -0.852954000     -5.036794000      3.825850000
C       -1.682699000     -6.145598000      3.567285000
C       -2.905404000     -5.723509000      2.744171000
S        0.562447000     -5.408311000      4.785378000
C        0.041319000     -7.091065000      4.851550000
C       -1.179176000     -7.310590000      4.155916000
S       -1.658315000     -8.987141000      4.243651000
C       -0.222985000     -9.382574000      5.216821000
C        0.573901000     -8.231166000      5.438979000
C       -4.524483000      4.909682000     -0.350434000
C       -3.896639000      6.115215000     -0.636128000
C       -2.428862000      6.340658000     -0.773730000
C       -2.274493000      7.678138000     -1.411404000
C       -3.542946000      8.267143000     -1.571978000
C       -4.572299000      7.354327000     -1.007243000
C       -1.105353000      8.301980000     -1.817255000
C       -1.196672000      9.561773000     -2.425903000
C       -2.459786000     10.160041000     -2.607990000
C       -3.634814000      9.521420000     -2.180454000
Cl       0.277222000     10.347694000     -2.945706000
Cl      -2.618073000     11.725113000     -3.375750000
O       -1.517601000      5.588873000     -0.455673000
C       -5.914790000      7.681792000     -0.799433000
C       -6.516857000      8.905164000     -1.230829000
N       -7.075014000      9.876899000     -1.559567000
C       -1.233881000      0.742791000      3.651946000
C       -0.531926000      1.957244000      3.723401000
C       -0.552752000      2.733456000      4.883288000
C       -1.279613000      2.335693000      6.018017000
C       -1.990698000      1.128916000      5.937690000
C       -1.973666000      0.349837000      4.777530000
C       -2.915153000     -6.321511000      1.311694000
C       -4.086591000     -6.311365000      0.536527000
C       -4.081726000     -6.766748000     -0.783143000
C       -2.908409000     -7.249023000     -1.386250000
C       -1.738098000     -7.246708000     -0.612102000
C       -1.738667000     -6.788698000      0.708072000
C       -4.178603000     -6.037228000      3.573643000
C       -4.839029000     -7.268900000      3.444465000
C       -5.939982000     -7.583861000      4.244537000
C       -6.422923000     -6.686579000      5.209796000
C       -5.749584000     -5.461885000      5.347286000
C       -4.648094000     -5.143881000      4.549998000
C        0.159777000    -10.633721000      5.772402000
C       -0.360760000    -11.923906000      5.741407000
C       -1.520730000    -12.389083000      4.933198000
C       -1.560550000    -13.869970000      5.065181000
C       -0.528133000    -14.287289000      5.924435000
C        0.200516000    -13.088238000      6.423678000
C       -0.363754000    -15.654037000      6.165469000
C       -1.235499000    -16.566943000      5.550945000
C       -2.271706000    -16.128376000      4.702030000
C       -2.434725000    -14.757907000      4.458017000
C       -2.912857000     -7.778664000     -2.809201000
C       -7.641570000     -7.014614000      6.053902000
O       -2.295277000    -11.712500000      4.268453000
C        1.185036000    -13.114600000      7.416148000
C        1.698847000    -14.313133000      8.004318000
N        2.172567000    -15.244131000      8.526568000
Cl      -0.989686000    -18.269543000      5.874432000
Cl      -3.369307000    -17.252297000      3.932536000
C       -1.274918000      3.176284000      7.282486000
C        3.684718000     -0.069413000     -0.886219000
C        1.776531000    -11.957119000      8.014476000
N        2.294799000    -11.065669000      8.563257000
C       -6.839526000      6.867656000     -0.070925000
N       -7.643941000      6.268231000      0.527267000
H       -0.144182000      7.828587000     -1.671426000
H       -4.576970000     10.017964000     -2.345367000
H       -5.590275000      4.894038000     -0.540262000
H       -5.865614000      2.527071000     -0.619099000
H        0.066733000     -2.287655000      3.683251000
H       -4.307381000     -3.490181000      1.488836000
H        1.489556000     -8.261503000      6.011782000
H        1.080766000    -10.527173000      6.328653000
H        0.413458000    -16.041979000      6.802916000
H       -3.222550000    -14.403328000      3.807495000
H       -2.547083000     -0.568598000      4.762717000
H        3.404735000     -0.129561000      1.855249000
H        1.362513000     -0.070477000      3.183282000
H        1.068330000     -0.023168000     -1.752905000
H       -0.976305000      0.014449000     -0.430913000
H       -2.570965000      0.786240000      6.788409000
H        0.005381000      3.664149000      4.899442000
H        0.044962000      2.304113000      2.876070000
H       -5.017273000     -5.954430000      0.959333000
H       -5.009724000     -6.746904000     -1.345813000
H       -0.806107000     -6.796372000      1.257925000
H       -0.808039000     -7.607136000     -1.039823000
H       -4.157361000     -4.190573000      4.701064000
H       -6.084752000     -4.741745000      6.086887000
H       -6.424439000     -8.545527000      4.110042000
H       -4.506768000     -7.992271000      2.711529000
H       -1.446582000      4.232588000      7.058010000
H       -2.044379000      2.851633000      7.985413000
H       -0.308001000      3.104992000      7.792266000
H        3.535011000     -0.543092000     -1.859052000
H        4.021862000      0.957089000     -1.069020000
H        4.495743000     -0.593662000     -0.375336000
H       -7.760298000     -8.092051000      6.186627000
H       -7.576876000     -6.556104000      7.043397000
H       -8.554466000     -6.638784000      5.578211000
H       -3.678051000     -7.289923000     -3.416549000
H       -1.946494000     -7.627585000     -3.295803000
H       -3.121182000     -8.854463000     -2.821144000

eps=4.88617
epsinf=4.88617
RSolv=8.36
