%mem=1000MW
%nprocshared=40
#p wB97XD/6-31g** nosymm pop=esp opt td=(nstates=2,root=1) scf=(MaxCycle=20000) iop(3/107=0001100000,3/108=0001100000) SCRF=(PCM,Solvent=Generic,Read)

 IT4CL

0  1
C       -0.019016000      0.040094000      0.130187000
C        0.019924000      0.008033000      1.531668000
C        1.280698000     -0.063467000      2.147185000
C        2.452538000     -0.086355000      1.388395000
C        2.417322000     -0.039859000     -0.015063000
C        1.155880000      0.021560000     -0.625941000
C       -1.282433000     -0.066071000      2.373391000
C       -2.527861000      0.368051000      1.590919000
C       -3.388491000     -0.727264000      1.382833000
C       -2.858030000     -1.914815000      1.947921000
C       -1.613732000     -1.567566000      2.581381000
S       -4.853479000     -0.332939000      0.511057000
C       -4.320142000      1.343864000      0.426221000
C       -3.063844000      1.547003000      1.059437000
C       -4.878621000      2.495592000     -0.120112000
C       -4.045128000      3.626004000      0.031980000
S       -2.572454000      3.214962000      0.933769000
C       -0.873915000     -2.524897000      3.236068000
C       -1.373686000     -3.851417000      3.257186000
C       -2.610532000     -4.201116000      2.611030000
C       -3.353517000     -3.242957000      1.961700000
C       -0.854559000     -5.036378000      3.840044000
C       -1.680754000     -6.144332000      3.569851000
C       -2.899246000     -5.719278000      2.741887000
S        0.554126000     -5.410475000      4.808167000
C        0.034994000     -7.094134000      4.862124000
C       -1.179880000     -7.311904000      4.156647000
S       -1.657708000     -8.988966000      4.232644000
C       -0.229091000     -9.387548000      5.214140000
C        0.564735000     -8.236788000      5.447781000
C       -4.526811000      4.942340000     -0.257716000
C       -3.901427000      6.122581000     -0.630256000
C       -2.438592000      6.311475000     -0.863983000
C       -2.296552000      7.628278000     -1.544814000
C       -3.560686000      8.240479000     -1.643820000
C       -4.572868000      7.367126000     -0.993765000
C       -1.141499000      8.216388000     -2.035267000
C       -1.242869000      9.463764000     -2.667389000
C       -2.502361000     10.084635000     -2.789123000
C       -3.662651000      9.481862000     -2.277657000
Cl       0.213928000     10.205277000     -3.290549000
Cl      -2.673646000     11.635715000     -3.581969000
O       -1.526810000      5.548163000     -0.578598000
C       -5.896060000      7.726882000     -0.721980000
C       -6.498033000      8.950462000     -1.152354000
N       -7.055876000      9.924230000     -1.475910000
C       -1.234587000      0.741245000      3.697236000
C       -0.524397000      1.949919000      3.782790000
C       -0.545766000      2.716340000      4.949168000
C       -1.281267000      2.314110000      6.076677000
C       -2.000785000      1.113350000      5.982161000
C       -1.983406000      0.344199000      4.815406000
C       -2.905548000     -6.315566000      1.309055000
C       -4.075188000     -6.305121000      0.531228000
C       -4.067070000     -6.759237000     -0.788877000
C       -2.892168000     -7.240499000     -1.389637000
C       -1.723573000     -7.238322000     -0.612824000
C       -1.727381000     -6.781543000      0.707754000
C       -4.175446000     -6.032110000      3.567640000
C       -4.835902000     -7.263619000      3.436967000
C       -5.938690000     -7.578333000      4.234638000
C       -6.423489000     -6.681023000      5.198934000
C       -5.750432000     -5.456336000      5.337616000
C       -4.647202000     -5.138519000      4.542657000
C        0.151196000    -10.641177000      5.766498000
C       -0.367790000    -11.931204000      5.725949000
C       -1.522292000    -12.393357000      4.908187000
C       -1.561803000    -13.874860000      5.032873000
C       -0.534614000    -14.295796000      5.896499000
C        0.190309000    -13.098847000      6.406208000
C       -0.371063000    -15.663581000      6.132327000
C       -1.238512000    -16.573996000      5.508366000
C       -2.269569000    -16.131872000      4.654851000
C       -2.431695000    -14.760476000      4.416050000
C       -2.893187000     -7.768976000     -2.813029000
C       -7.643630000     -7.009052000      6.040895000
O       -2.293015000    -11.714117000      4.241811000
C        1.168532000    -13.129495000      7.404083000
C        1.679144000    -14.330644000      7.990070000
N        2.149979000    -15.263704000      8.511088000
Cl      -0.994263000    -18.277855000      5.825845000
Cl      -3.361537000    -17.252775000      3.873294000
C       -1.277062000      3.144183000      7.348059000
C        3.693443000     -0.025235000     -0.837668000
C        1.756756000    -11.974537000      8.010818000
N        2.272031000    -11.085627000      8.566336000
C       -6.796547000      6.948467000      0.072421000
N       -7.580327000      6.378436000      0.724586000
H       -0.183127000      7.725976000     -1.933945000
H       -4.602716000      9.994448000     -2.400087000
H       -5.603362000      4.938962000     -0.372396000
H       -5.839490000      2.545233000     -0.612091000
H        0.060088000     -2.284669000      3.722704000
H       -4.287373000     -3.483738000      1.474985000
H        1.476262000     -8.268844000      6.027052000
H        1.068308000    -10.536224000      6.329391000
H        0.402286000    -16.054078000      6.772884000
H       -3.215513000    -14.403312000      3.762124000
H       -2.563300000     -0.569945000      4.789504000
H        3.407056000     -0.138996000      1.902341000
H        1.362499000     -0.093208000      3.226580000
H        1.079939000      0.055906000     -1.708029000
H       -0.967133000      0.077902000     -0.390564000
H       -2.588191000      0.767776000      6.826785000
H        0.018914000      3.642836000      4.976235000
H        0.059200000      2.299914000      2.941354000
H       -5.006934000     -5.948875000      0.952287000
H       -4.993762000     -6.739248000     -1.353692000
H       -0.796093000     -6.789060000      1.259840000
H       -0.792397000     -7.597899000     -1.038825000
H       -4.156885000     -4.185188000      4.694717000
H       -6.087099000     -4.736047000      6.076395000
H       -6.423014000     -8.539928000      4.099142000
H       -4.502224000     -7.987108000      2.704792000
H       -1.448292000      4.202330000      7.131949000
H       -2.047053000      2.814157000      8.047881000
H       -0.310434000      3.068536000      7.857712000
H        3.548325000     -0.500439000     -1.810552000
H        4.022985000      1.003642000     -1.020928000
H        4.507548000     -0.543336000     -0.325602000
H       -7.762162000     -8.086461000      6.174056000
H       -7.580982000     -6.549935000      7.030237000
H       -8.555798000     -6.633898000      5.563289000
H       -3.657154000     -7.279960000     -3.421703000
H       -1.925794000     -7.617221000     -3.297361000
H       -3.101196000     -8.844822000     -2.826355000

eps=4.88617
epsinf=4.88617
RSolv=8.36
