%mem=1000MW
%nprocshared=40
#p wB97XD/6-31g** nosymm pop=esp opt td=(nstates=2,root=1) scf=(MaxCycle=20000) iop(3/107=0001100000,3/108=0001100000) SCRF=(PCM,Solvent=Generic,Read)

 IT4CL

0  1
C        0.123920000      0.381466000      0.747592000
C        0.039394000      0.268808000      2.143664000
C        1.239979000      0.220847000      2.870198000
C        2.475438000      0.303160000      2.224469000
C        2.564372000      0.435373000      0.829515000
C        1.361515000      0.468255000      0.106162000
C       -1.323926000      0.085679000      2.856723000
C       -2.526239000      0.555807000      2.027801000
C       -3.382526000     -0.531535000      1.738948000
C       -2.858210000     -1.748442000      2.253641000
C       -1.634158000     -1.431359000      2.927174000
S       -4.819452000     -0.100929000      0.852520000
C       -4.284041000      1.574690000      0.852036000
C       -3.041442000      1.749929000      1.524222000
C       -4.830826000      2.749183000      0.323773000
C       -4.013637000      3.854422000      0.562531000
S       -2.565030000      3.431185000      1.476191000
C       -0.889641000     -2.431526000      3.521593000
C       -1.383106000     -3.749673000      3.447815000
C       -2.611976000     -4.066834000      2.784697000
C       -3.351405000     -3.072854000      2.181958000
C       -0.851844000     -4.982665000      3.955852000
C       -1.671817000     -6.058105000      3.620986000
C       -2.902840000     -5.589336000      2.835344000
S        0.561398000     -5.404775000      4.890372000
C        0.053055000     -7.086351000      4.841801000
C       -1.158022000     -7.268917000      4.135157000
S       -1.628673000     -8.940930000      4.102898000
C       -0.196490000     -9.393461000      5.047263000
C        0.591300000     -8.269793000      5.354110000
C       -4.313134000      5.259665000      0.244818000
C       -3.913720000      5.950597000     -0.872569000
C       -3.101713000      5.310756000     -1.975641000
C       -2.861068000      6.375432000     -2.981354000
C       -3.488563000      7.562994000     -2.538104000
C       -4.149158000      7.332084000     -1.241887000
C       -2.170415000      6.286508000     -4.178135000
C       -2.085485000      7.425484000     -4.993519000
C       -2.709497000      8.615724000     -4.576196000
C       -3.408582000      8.695427000     -3.362081000
Cl      -1.203434000      7.313710000     -6.509559000
Cl      -2.645342000     10.064311000     -5.568125000
O       -2.721232000      4.150116000     -2.034196000
C       -4.892144000      8.305207000     -0.506665000
C       -4.953060000      9.683873000     -0.846227000
N       -5.034655000     10.831618000     -1.069577000
C       -1.420851000      0.780223000      4.244761000
C       -0.794906000      2.015932000      4.478548000
C       -0.950491000      2.680565000      5.695909000
C       -1.740487000      2.146229000      6.727819000
C       -2.373656000      0.918229000      6.485112000
C       -2.222009000      0.250374000      5.266939000
C       -2.937511000     -6.108940000      1.373727000
C       -4.122799000     -6.058717000      0.621834000
C       -4.139256000     -6.432500000     -0.723244000
C       -2.974897000     -6.869814000     -1.375594000
C       -1.791341000     -6.910270000     -0.622939000
C       -1.770350000     -6.534140000      0.722838000
C       -4.167498000     -5.938625000      3.667983000
C       -4.835907000     -7.160027000      3.489992000
C       -5.925233000     -7.509140000      4.292479000
C       -6.388514000     -6.658190000      5.307840000
C       -5.707438000     -5.444342000      5.493059000
C       -4.617618000     -5.092459000      4.693822000
C        0.189450000    -10.687057000      5.521828000
C       -0.316084000    -11.961527000      5.384396000
C       -1.442400000    -12.384391000      4.502555000
C       -1.412901000    -13.870117000      4.472614000
C       -0.392945000    -14.340957000      5.317405000
C        0.259218000    -13.180103000      5.983274000
C       -0.169204000    -15.717771000      5.410578000
C       -0.974889000    -16.590715000      4.667211000
C       -2.005451000    -16.100640000      3.833959000
C       -2.223956000    -14.722567000      3.735638000
C       -3.002112000     -7.306355000     -2.829615000
C       -7.596267000     -7.021332000      6.153304000
O       -2.228757000    -11.670772000      3.896976000
C        1.160888000    -13.265903000      7.030510000
C        1.675505000    -14.500229000      7.549246000
N        2.141178000    -15.459408000      8.020726000
Cl      -0.661487000    -18.304374000      4.802656000
Cl      -3.021330000    -17.176250000      2.906893000
C       -1.881834000      2.867269000      8.056323000
C        3.905139000      0.571780000      0.130452000
C        1.659142000    -12.142068000      7.770747000
N        2.092503000    -11.283272000      8.429867000
C       -5.660500000      8.013605000      0.652098000
N       -6.319223000      7.834887000      1.605715000
H       -1.706666000      5.357577000     -4.481752000
H       -3.872134000      9.631737000     -3.097299000
H       -4.877467000      5.764689000      1.019052000
H       -5.764249000      2.822685000     -0.213508000
H        0.039337000     -2.218495000      4.029542000
H       -4.279446000     -3.285390000      1.672128000
H        1.505408000     -8.334198000      5.926854000
H        1.101244000    -10.613148000      6.099158000
H        0.608332000    -16.139742000      6.025699000
H       -3.003857000    -14.331328000      3.097031000
H       -2.740722000     -0.689199000      5.127567000
H        3.380817000      0.269733000      2.821975000
H        1.222728000      0.129651000      3.949085000
H        1.384055000      0.566698000     -0.974262000
H       -0.773604000      0.402478000      0.142183000
H       -2.998822000      0.471623000      7.251385000
H       -0.448317000      3.631796000      5.839107000
H       -0.172724000      2.466196000      3.716423000
H       -5.047289000     -5.732099000      1.081092000
H       -5.076975000     -6.382176000     -1.267354000
H       -0.827570000     -6.569528000      1.254083000
H       -0.867342000     -7.238450000     -1.087982000
H       -4.122452000     -4.148682000      4.883386000
H       -6.027844000     -4.758140000      6.270458000
H       -6.415978000     -8.461467000      4.119756000
H       -4.521267000     -7.848756000      2.716993000
H       -2.065871000      3.934751000      7.909052000
H       -2.702639000      2.461084000      8.650214000
H       -0.964268000      2.773540000      8.647241000
H        3.908667000      0.053626000     -0.831623000
H        4.130989000      1.625774000     -0.065411000
H        4.718394000      0.167534000      0.736733000
H       -7.694089000     -8.102746000      6.271157000
H       -7.535638000     -6.575685000      7.148709000
H       -8.518249000     -6.656844000      5.686596000
H       -3.768515000     -6.770600000     -3.394314000
H       -2.039936000     -7.134564000     -3.317343000
H       -3.223429000     -8.376572000     -2.909580000

eps=4.88617
epsinf=4.88617
RSolv=8.36
