%mem=1000MW
%nprocshared=40
#p wB97XD/6-31g** nosymm pop=esp td=(triplet,nstates=1) scf=(MaxCycle=20000) iop(3/107=0016000000,3/108=0016000000) SCRF=(PCM,Solvent=Generic,Read)

 Y6 opt-TDdft

0 1
C          0.19689        0.87841        0.19322
C          0.25613        0.57222        1.55869
C          1.45097        0.79287        2.26863
C          2.60241        1.28875        1.66307
C          2.53484        1.58410        0.30771
C          1.34177        1.38665       -0.41043
C         -0.74934       -0.00287        2.48585
C         -0.18478        0.07934        3.84323
C          1.25498        0.44367        3.69878
C         -0.92106        0.02965        5.00627
C         -0.59848        0.08674        6.39712
S          1.02597       -0.05675        7.09372
C          0.36350       -0.05063        8.69245
C         -1.03575        0.09850        8.67930
C         -1.60112        0.17846        7.39460
S         -1.75598        0.15776       10.29734
C         -0.15988       -0.01835       10.98300
C          0.86164       -0.10577       10.01373
N          2.08248       -0.26787       10.63195
C          1.85139       -0.25735       12.00796
C          0.43839       -0.14726       12.24080
C          2.74304       -0.30151       13.10684
C          2.22944       -0.52826       14.43602
C          0.80903       -0.52889       14.67256
C         -0.09106       -0.26557       13.57387
N          4.13010       -0.18489       13.17049
C          4.49818       -0.40269       14.48323
C          3.33515       -0.62263       15.27482
C          5.67671       -0.42457       15.23313
C          5.41558       -0.67015       16.60218
S          3.69316       -0.87490       16.96481
C          6.55527       -0.71394       17.42809
C          7.71532       -0.47626       16.67817
S          7.38891       -0.25533       14.95851
N         -1.36999       -0.22110       13.92651
S         -1.42066       -0.50499       15.55628
N          0.19958       -0.68759       15.84058
C          9.11091       -0.51823       17.13480
C          9.83709        0.55802       17.58977
C         11.20327        0.63208       18.05281
C         11.47433        2.03663       18.41932
C         10.31609        2.81971       18.20654
C          9.24401        1.94201       17.68488
C         10.26032        4.18367       18.46143
C         11.41005        4.79873       18.94997
C         12.56834        4.04323       19.16562
C         12.62484        2.67291       18.90990
F         13.66606        4.66635       19.63642
F         11.41928        6.12319       19.21740
C         12.13726       -0.43971       18.15254
C         13.46490       -0.29510       18.63646
N         14.56812       -0.23734       19.02668
O          8.10423        2.27585       17.39010
C          6.54274       -0.95619       18.91512
C          4.99873        0.53840       12.22618
C          3.24874       -0.83109        9.93350
C         -3.08001        0.33873        7.13413
O          2.11053        0.48350        4.57107
C         -1.92952       -0.61546        2.10862
C         -2.41719       -0.64500        0.76133
N         -2.87204       -0.69733       -0.31040
F          3.60405        2.06961       -0.33598
F          1.31762        1.70217       -1.71197
C         11.84883       -1.78170       17.78844
N         11.66677       -2.90400       17.50300
C         -2.76586       -1.36376        3.00093
N         -3.47492       -2.01286        3.65991
H         13.55465        2.15958       19.09880
H          9.35879        4.75717       18.29023
H          9.56957       -1.49699       17.07350
H          7.55692       -1.03175       19.30348
H          6.01410       -1.88242       19.15459
H          6.04036       -0.13522       19.43390
H          5.59595        1.25804       12.78305
H          4.38359        1.09634       11.52709
H          5.65880       -0.14174       11.69107
H          2.90254       -1.55866        9.20136
H          3.87463       -1.36078       10.64412
H          3.82199       -0.05401        9.43046
H         -3.27682        1.11162        6.38975
H         -3.60410        0.62617        8.04487
H         -3.51978       -0.59687        6.78237
H         -1.99083       -0.04753        4.85911
H          3.51905        1.44515        2.21541
H         -0.68839        0.75884       -0.41143

  eps=3.36
  epsinf=3.36
  RSolv=7.28
 
