%mem=1000MW
%nprocshared=40
#p wB97XD/6-31g** nosymm pop=esp opt td=(nstates=2,root=1) scf=(MaxCycle=20000) iop(3/107=0016000000,3/108=0016000000) SCRF=(PCM,Solvent=Generic,Read)

 Y6 opt-TDdft

0 1
 C    13.755839     2.713938    17.214886
 C    12.471038     2.294799    16.863895
 C    11.690400     3.103412    16.034672
 C    12.127328     4.318634    15.533993
 C    13.400244     4.725573    15.887306
 C    14.196822     3.928524    16.716577
 C    10.378766     2.459040    15.798118
 C    10.391393     1.187260    16.550649
 C    11.697506     1.072673    17.211551
 C     9.364578     0.284002    16.631997
 C     8.060466     0.200694    16.078827
 C     6.974329    -0.184670    16.882863
 C     5.781491    -0.211498    16.145127
 C     5.940975     0.135759    14.803297
 S     7.570236     0.514824    14.409010
 S     4.124171    -0.617280    16.575202
 C     3.651429    -0.313267    14.931329
 C     4.707001     0.065635    14.114610
 C     2.482305    -0.292297    14.141237
 C     2.886068     0.070299    12.842135
 N     4.248614     0.311914    12.837755
 C     1.092068    -0.448017    14.450406
 C     0.109039    -0.200120    13.427007
 C     0.541971     0.078941    12.090126
 C     1.915083     0.143089    11.785710
 C    -0.145378     0.204892    10.863882
 C     0.811564     0.304075     9.864630
 N     2.074395     0.258432    10.415774
 C     0.249371     0.374520     8.567473
 C    -1.140976     0.336864     8.626735
 S    -1.775940     0.212287    10.261590
 C    -1.770421     0.415804     7.372335
 C    -0.824923     0.512674     6.337371
 S     0.834537     0.510934     6.957774
 N    -1.138425    -0.321593    13.846449
 S    -1.059235    -0.721156    15.436620
 N     0.571235    -0.749775    15.627083
 C    -1.224143     0.598779     4.975845
 C    -0.561423     0.702530     3.781079
 C    -1.184521     0.781879     2.451464
 C    -0.083592     0.899991     1.458129
 C     1.137735     0.886949     2.134511
 C     0.903629     0.763085     3.590296
 C     2.360872     0.978653     1.491139
 C     2.342112     1.088757     0.113674
 C     1.127874     1.104660    -0.581790
 C    -0.092641     1.011733     0.066048
 F     3.472972     1.182034    -0.579604
 F     1.165390     1.213579    -1.906885
 C    -2.516210     0.752990     2.126967
 C    -3.572300     0.633776     3.084181
 N    -4.449276     0.538184     3.838480
 O     1.775072     0.722816     4.439308
 C    -3.265383     0.399601     7.251963
 C     3.245914    -0.089977     9.626119
 C     5.003274     1.120012    11.891725
 C     7.058595    -0.528934    18.341950
 C    12.169476     0.054128    17.999266
 C    11.422149    -1.122948    18.318920
 N    10.837265    -2.087473    18.593840
 O     9.482373     2.916118    15.112557
 F    13.894739     5.879281    15.448237
 F    15.414340     4.366296    17.025685
 C    13.474164     0.059276    18.587199
 N    14.525338     0.034971    19.077691
 C    -2.997531     0.838131     0.781996
 N    -3.420870     0.905189    -0.296143
 H    14.425885     2.149994    17.849075
 H    11.499935     4.926397    14.892397
 H     9.595760    -0.618551    17.183780
 H     7.736969    -1.368125    18.520137
 H     6.076476    -0.806446    18.729170
 H     7.426668     0.312782    18.935425
 H     5.633290     1.818328    12.446651
 H     4.316014     1.705435    11.281480
 H     5.639623     0.508668    11.247301
 H     2.932833    -0.710429     8.783875
 H     3.934699    -0.677234    10.232995
 H     3.757385     0.794695     9.239128
 H    -3.640148     0.386437     6.229018
 H    -3.683089     1.281171     7.749213
 H    -3.665050    -0.482397     7.762456
 H    -2.302284     0.576856     4.897429
 H     3.293513     0.963843     2.043031
 H    -0.991059     1.031933    -0.535265

  eps=3.36
  epsinf=3.36
  RSolv=7.28


