%mem=800MW
%nprocshared=32
%chk=IT-4Cl-HSO-scan-160-S1fromT2.chk
%rwf=IT-4Cl-HSO-scan-160-S1fromT2.rwf
#p wB97XD/6-31g** td(50-50,nstates=5) 6D 10F nosymm GFInput scf=(MaxCycle=20000) iop(3/107=0001100000,3/108=0001100000) SCRF=(PCM,Solvent=Generic,Read)

 HSO

0 1
C              -0.1147600000     -0.2830800000     -0.2214200000
C              -0.0841100000     -0.1481900000      1.1742800000
C               1.1744700000     -0.0884700000      1.7953600000
C               2.3513900000     -0.1412000000      1.0455800000
C               2.3237400000     -0.2623500000     -0.3536400000
C               1.0649600000     -0.3357200000     -0.9687400000
C              -1.3896700000     -0.1935000000      2.0117900000
C              -2.6412000000      0.1852300000      1.2059200000
C              -3.5022400000     -0.9066900000      1.0878500000
C              -2.9504900000     -2.0753700000      1.7346200000
C              -1.7064100000     -1.6837400000      2.3030100000
S              -4.9810100000     -0.5769500000      0.2214200000
C              -4.4489700000      1.0876800000     -0.0060400000
C              -3.1828500000      1.3273600000      0.5917800000
C              -5.0219400000      2.1844300000     -0.6425200000
C              -4.2017100000      3.3344500000     -0.5565900000
S              -2.7056700000      2.9854100000      0.3550500000
C              -0.9269400000     -2.6065400000      2.9833500000
C              -1.4147200000     -3.9213800000      3.0940700000
C              -2.6641500000     -4.3107600000      2.5348600000
C              -3.4385700000     -3.3895300000      1.8455100000
C              -0.8482000000     -5.0938000000      3.7139400000
C              -1.6794400000     -6.2060600000      3.5435000000
C              -2.9566700000     -5.8138400000      2.7844300000
S               0.6171200000     -5.4119800000      4.6087600000
C               0.1220200000     -7.0968000000      4.7656500000
C              -1.1315600000     -7.3486400000      4.1469400000
S              -1.5848800000     -9.0308000000      4.3128400000
C              -0.0961200000     -9.3824300000      5.2180000000
C               0.7007700000     -8.2082300000      5.3585800000
C              -4.4033900000      4.6673200000     -0.9827000000
C              -5.3126000000      5.2169900000     -1.8971400000
C              -6.0073800000      4.4918800000     -3.0138700000
C              -6.5153300000      5.5505200000     -3.9323800000
C              -6.2302400000      6.8174400000     -3.3927200000
C              -5.5420600000      6.6356000000     -2.0859000000
C              -7.1694800000      5.3864400000     -5.1436500000
C              -7.5509500000      6.5304900000     -5.8582300000
C              -7.2711100000      7.8076700000     -5.3320600000
C              -6.6159600000      7.9579800000     -4.0989500000
Cl             -8.3635400000      6.3250800000     -7.3939000000
Cl             -7.7252900000      9.2614400000     -6.1935400000
O              -6.1152400000      3.2876500000     -3.1905100000
C              -5.2591300000      7.6559600000     -1.1663400000
C              -5.4266700000      9.0484200000     -1.4408000000
N              -5.5277500000     10.2004900000     -1.6030400000
C              -1.3585500000      0.6846200000      3.2918100000
C              -0.7150500000      1.9334000000      3.2945300000
C              -0.7557200000      2.7638700000      4.4161200000
C              -1.4458400000      2.3878300000      5.5803700000
C              -2.0981700000      1.1458000000      5.5696300000
C              -2.0591900000      0.3118000000      4.4484900000
C              -3.0972100000     -6.5094800000      1.4060100000
C              -4.3368600000     -6.5668100000      0.7488500000
C              -4.4508400000     -7.1160800000     -0.5301900000
C              -3.3330400000     -7.6274500000     -1.2089400000
C              -2.0933000000     -7.5548500000     -0.5550700000
C              -1.9755000000     -7.0042100000      0.7236900000
C              -4.1622800000     -6.0421600000      3.7384000000
C              -4.8188100000     -7.2834300000      3.7895500000
C              -5.8434500000     -7.5205300000      4.7074700000
C              -6.2548800000     -6.5331100000      5.6179900000
C              -5.5914400000     -5.2982200000      5.5702700000
C              -4.5642900000     -5.0577300000      4.6530500000
C               0.3323700000    -10.6054700000      5.7872800000
C              -0.1743900000    -11.9089600000      5.8219300000
C              -1.3637700000    -12.4167400000      5.0720300000
C              -1.3724100000    -13.8926600000      5.2450700000
C              -0.3006500000    -14.2664400000      6.0754800000
C               0.4251100000    -13.0391700000      6.5095000000
C              -0.1040700000    -15.6219200000      6.3496400000
C              -0.9825500000    -16.5666600000      5.7942500000
C              -2.0582200000    -16.1715000000      4.9744300000
C              -2.2542500000    -14.8118400000      4.6982700000
C              -3.4656200000     -8.2601400000     -2.5831800000
C              -7.3824300000     -6.7958700000      6.6006500000
O              -2.1744200000    -11.7665300000      4.4274000000
C               1.4516400000    -13.0158600000      7.4685400000
C               2.0240500000    -14.1865000000      8.0552000000
N               2.5465000000    -15.0946100000      8.5716800000
Cl             -0.6931100000    -18.2546700000      6.1551900000
Cl             -3.1658100000    -17.3350100000      4.2806700000
C              -1.4618500000      3.2852000000      6.8053000000
C               3.6062800000     -0.2842700000     -1.1664100000
C               2.0223600000    -11.8299600000      8.0273600000
N               2.5274700000    -10.9131500000      8.5461100000
C              -4.8359800000      7.4265600000      0.1812700000
N              -4.5165500000      7.3215400000      1.2996000000
H              -7.3775900000      4.3994000000     -5.5333100000
H              -6.4228900000      8.9558500000     -3.7402700000
H              -3.7115300000      5.3771200000     -0.5458000000
H              -5.9783700000      2.1891300000     -1.1360300000
H               0.0238600000     -2.3304600000      3.4161600000
H              -4.3858200000     -3.6669700000      1.4056500000
H               1.6465600000     -8.2117100000      5.8807100000
H               1.2802200000    -10.4740300000      6.2900900000
H               0.7024700000    -15.9795400000      6.9682500000
H              -3.0728600000    -14.4889600000      4.0696100000
H              -2.5857400000     -0.6330700000      4.4883700000
H               3.3039800000     -0.0850200000      1.5629800000
H               1.2485800000      0.0082000000      2.8713200000
H               0.9949900000     -0.4373300000     -2.0470200000
H              -1.0612100000     -0.3560300000     -0.7420900000
H              -2.6475300000      0.8170800000      6.4461000000
H              -0.2425700000      3.7194500000      4.3779400000
H              -0.1654400000      2.2645300000      2.4229400000
H              -5.2288100000     -6.1894600000      1.2329500000
H              -5.4282200000     -7.1468400000     -1.0011500000
H              -0.9952100000     -6.9602000000      1.1813500000
H              -1.2016700000     -7.9330300000     -1.0450300000
H              -4.0775400000     -4.0912300000      4.6663200000
H              -5.8731700000     -4.5076700000      6.2585100000
H              -6.3259600000     -8.4927100000      4.7117300000
H              -4.5427900000     -8.0747700000      3.1050500000
H              -1.6490800000      4.3273800000      6.5330200000
H              -2.2302900000      2.9795800000      7.5179300000
H              -0.4972100000      3.2524100000      7.3235200000
H               3.4564800000     -0.7539100000     -2.1408400000
H               3.9715100000      0.7336300000     -1.3431000000
H               4.3992900000     -0.8284100000     -0.6470500000
H              -7.2576300000     -7.7625300000      7.0964200000
H              -7.4318100000     -6.0250000000      7.3719800000
H              -8.3504200000     -6.8161800000      6.0882700000
H              -4.2960500000     -7.8270200000     -3.1453200000
H              -2.5540800000     -8.1322800000     -3.1714800000
H              -3.6522800000     -9.3364200000     -2.4965200000

  eps=4.88617
  epsinf=4.88617
  RSolv=8.36
 
