%mem=800MW
%nprocshared=32
%chk=IT-4Cl-HSO-scan-150-S1fromT2.chk
%rwf=IT-4Cl-HSO-scan-150-S1fromT2.rwf
#p wB97XD/6-31g** td(50-50,nstates=5) 6D 10F nosymm GFInput scf=(MaxCycle=20000) iop(3/107=0001100000,3/108=0001100000) SCRF=(PCM,Solvent=Generic,Read)

 HSO

0 1
C              -0.0265500000     -0.2975800000     -0.2178300000
C              -0.0110400000     -0.1599700000      1.1778000000
C               1.2408700000     -0.1103800000      1.8133100000
C               2.4257800000     -0.1758200000      1.0774400000
C               2.4134000000     -0.3003500000     -0.3218000000
C               1.1612800000     -0.3630700000     -0.9512700000
C              -1.3266800000     -0.1918100000      2.0005300000
C              -2.5652100000      0.1914800000      1.1770200000
C              -3.4301900000     -0.8962900000      1.0497400000
C              -2.8931600000     -2.0661100000      1.7067000000
C              -1.6567500000     -1.6787200000      2.2942300000
S              -4.8950100000     -0.5614300000      0.1619800000
C              -4.3507300000      1.0994200000     -0.0632800000
C              -3.0915900000      1.3343300000      0.5509500000
C              -4.9087000000      2.1967200000     -0.7118000000
C              -4.0829000000      3.3422500000     -0.6202300000
S              -2.6015000000      2.9885500000      0.3136300000
C              -0.8939000000     -2.6025600000      2.9918300000
C              -1.3886300000     -3.9152300000      3.0972200000
C              -2.6276400000     -4.3018200000      2.5132300000
C              -3.3871300000     -3.3785800000      1.8101300000
C              -0.8392200000     -5.0878100000      3.7322700000
C              -1.6696900000     -6.1978400000      3.5452800000
C              -2.9250500000     -5.8055400000      2.7515700000
S               0.6029300000     -5.4084100000      4.6634300000
C               0.0977300000     -7.0909400000      4.8141900000
C              -1.1414000000     -7.3401500000      4.1660900000
S              -1.6071800000     -9.0189500000      4.3283900000
C              -0.1415600000     -9.3740400000      5.2695900000
C               0.6571200000     -8.2027400000      5.4248900000
C              -4.2703700000      4.6738000000     -1.0567100000
C              -5.1660800000      5.2245700000     -1.9838300000
C              -5.8567700000      4.4978000000     -3.1020200000
C              -6.3510000000      5.5543100000     -4.0302400000
C              -6.0607000000      6.8224200000     -3.4963000000
C              -5.3830600000      6.6436900000     -2.1835200000
C              -6.9985100000      5.3872600000     -5.2446700000
C              -7.3678700000      6.5294300000     -5.9684400000
C              -7.0828400000      7.8078600000     -5.4480600000
C              -6.4343500000      7.9612400000     -4.2118200000
Cl             -8.1722700000      6.3201900000     -7.5079200000
Cl             -7.5224500000      9.2593200000     -6.3209000000
O              -5.9711200000      3.2933300000     -3.2730900000
C              -5.0985100000      7.6681800000     -1.2689700000
C              -5.2506600000      9.0600800000     -1.5550100000
N              -5.3392300000     10.2118600000     -1.7263900000
C              -1.3039700000      0.6924000000      3.2762500000
C              -0.6517300000      1.9366600000      3.2797500000
C              -0.6990100000      2.7733100000      4.3963700000
C              -1.4048400000      2.4082700000      5.5547300000
C              -2.0658900000      1.1709500000      5.5430300000
C              -2.0203100000      0.3306800000      4.4267500000
C              -3.0212500000     -6.4972400000      1.3666000000
C              -4.2390800000     -6.5508500000      0.6693800000
C              -4.3130900000     -7.0988000000     -0.6131100000
C              -3.1750700000     -7.6123000000     -1.2557500000
C              -1.9569300000     -7.5423600000     -0.5623400000
C              -1.8791700000     -6.9930600000      0.7201300000
C              -4.1589900000     -6.0425200000      3.6653200000
C              -4.8156000000     -7.2845400000      3.6832000000
C              -5.8700900000     -7.5311300000      4.5637500000
C              -6.3121700000     -6.5527400000      5.4696600000
C              -5.6479800000     -5.3173500000      5.4563000000
C              -4.5912300000     -5.0670900000      4.5758500000
C               0.2681400000    -10.5971300000      5.8524000000
C              -0.2454600000    -11.8981500000      5.8799900000
C              -1.4221900000    -12.4020600000      5.1078000000
C              -1.4432400000    -13.8771000000      5.2864100000
C              -0.3908900000    -14.2538400000      6.1399500000
C               0.3343300000    -13.0293200000      6.5826500000
C              -0.2091300000    -15.6091900000      6.4247500000
C              -1.0822700000    -16.5509600000      5.8560600000
C              -2.1378000000    -16.1528200000      5.0118200000
C              -2.3195700000    -14.7932200000      4.7258300000
C              -3.2644900000     -8.2453100000     -2.6332200000
C              -7.4712300000     -6.8268300000      6.4116500000
O              -2.2157000000    -11.7497600000      4.4442400000
C               1.3441900000    -13.0090600000      7.5593500000
C               1.8993100000    -14.1813200000      8.1593100000
N               2.4075600000    -15.0908000000      8.6874200000
Cl             -0.8120000000    -18.2389000000      6.2317700000
Cl             -3.2374800000    -17.3126900000      4.2996200000
C              -1.4284500000      3.3127900000      6.7742600000
C               3.7053500000     -0.3381800000     -1.1188900000
C               1.9131800000    -11.8251300000      8.1240000000
N               2.4155600000    -10.9101300000      8.6485800000
C              -4.6888800000      7.4451400000      0.0838400000
N              -4.3801000000      7.3459400000      1.2056900000
H              -7.2109100000      4.3992500000     -5.6295200000
H              -6.2370500000      8.9600300000     -3.8580400000
H              -3.5784500000      5.3812600000     -0.6162000000
H              -5.8583800000      2.2050000000     -1.2180500000
H               0.0499200000     -2.3289400000      3.4411000000
H              -4.3271800000     -3.6535200000      1.3536600000
H               1.5904400000     -8.2085400000      5.9690200000
H               1.2053900000    -10.4688900000      6.3755400000
H               0.5816900000    -15.9687800000      7.0622300000
H              -3.1229700000    -14.4681000000      4.0789900000
H              -2.5540000000     -0.6102800000      4.4655200000
H               3.3728300000     -0.1276500000      1.6057300000
H               1.3037800000     -0.0123500000      2.8898500000
H               1.1028700000     -0.4666300000     -2.0300700000
H              -0.9674700000     -0.3624500000     -0.7494100000
H              -2.6275500000      0.8508300000      6.4149000000
H              -0.1788000000      3.7251100000      4.3590400000
H              -0.0903900000      2.2596000000      2.4125700000
H              -5.1451700000     -6.1724900000      1.1255700000
H              -5.2752100000     -7.1270800000     -1.1147600000
H              -0.9137600000     -6.9515900000      1.2084900000
H              -1.0508900000     -7.9219600000     -1.0239200000
H              -4.1052900000     -4.1007100000      4.6147700000
H              -5.9523000000     -4.5339500000      6.1431300000
H              -6.3519200000     -8.5034000000      4.5420300000
H              -4.5159500000     -8.0691900000      3.0009600000
H              -1.6198400000      4.3524000000      6.4949000000
H              -2.1974900000      3.0080500000      7.4865700000
H              -0.4650900000      3.2880400000      7.2952300000
H               3.5595900000     -0.7977900000     -2.0986700000
H               4.0911300000      0.6742500000     -1.2828000000
H               4.4818300000     -0.9005600000     -0.5939200000
H              -7.3574600000     -7.7953000000      6.9065800000
H              -7.5514400000     -6.0603400000      7.1848400000
H              -8.4212600000     -6.8499400000      5.8668000000
H              -4.0745600000     -7.8103400000     -3.2229600000
H              -2.3336300000     -8.1205700000     -3.1912300000
H              -3.4569200000     -9.3210200000     -2.5520600000

  eps=4.88617
  epsinf=4.88617
  RSolv=8.36
 
