%mem=1000MW
%nprocshared=40
#p wB97XD/6-31g** nosymm pop=esp opt td=(triplet,nstates=2,root=1) scf=(MaxCycle=20000) iop(3/107=0001100000,3/108=0001100000) SCRF=(PCM,Solvent=Generic,Read)

 IT-4Cl opt-TDdft

0 1
C         -0.76456       -0.71002       -1.00551
C         -0.48426       -0.49910        0.35281
C          0.86418       -0.47935        0.74461
C          1.88848       -0.64831       -0.18973
C          1.61171       -0.84815       -1.55159
C          0.26236       -0.87690       -1.93758
C         -1.62070       -0.41568        1.40551
C         -2.98565       -0.06226        0.79816
C         -3.88220       -1.15342        0.93212
C         -3.26092       -2.25703        1.55366
C         -1.91438       -1.86137        1.88880
S         -5.49278       -0.83298        0.31307
C         -4.96766        0.79153       -0.13499
C         -3.59876        1.03194        0.19738
C         -5.60513        1.86365       -0.72837
C         -4.74733        2.99221       -0.89189
S         -3.11285        2.64167       -0.28816
C         -1.06857       -2.73242        2.52901
C         -1.55441       -4.03461        2.83387
C         -2.89122       -4.43982        2.47377
C         -3.74281       -3.56336        1.84850
C         -0.93885       -5.13188        3.47259
C         -1.79668       -6.26051        3.50456
C         -3.14646       -5.92313        2.85486
S          0.62510       -5.40215        4.21965
C          0.13516       -7.05853        4.58100
C         -1.19092       -7.34445        4.13261
S         -1.62608       -9.00146        4.48945
C         -0.04248       -9.29321        5.24375
C          0.76881       -8.12153        5.19506
C         -5.24932        4.20395       -1.41897
C         -4.68633        5.44295       -1.73672
C         -3.23476        5.76057       -1.81870
C         -3.13305        7.09939       -2.46206
C         -4.42412        7.59886       -2.70438
C         -5.42256        6.61482       -2.19106
C         -1.98515        7.79728       -2.80449
C         -2.12344        9.04520       -3.42615
C         -3.41042        9.55853       -3.68446
C         -4.56334        8.84242       -3.32361
Cl        -0.67700        9.92549       -3.86494
Cl        -3.62723       11.11004       -4.46482
O         -2.28933        5.07009       -1.46090
C         -6.79561        6.84979       -2.09736
C         -7.44660        8.01626       -2.61069
N         -8.04903        8.93310       -3.00955
C         -1.34586        0.57588        2.56732
C         -0.65954        1.78001        2.34330
C         -0.49511        2.71769        3.36499
C         -1.01422        2.49764        4.65082
C         -1.70792        1.29692        4.86875
C         -1.87419        0.35644        3.84906
C         -3.40221       -6.70167        1.53689
C         -4.69123       -6.78191        0.98476
C         -4.90942       -7.39818       -0.24915
C         -3.85271       -7.95897       -0.98509
C         -2.56527       -7.86822       -0.43468
C         -2.34290       -7.24891        0.79795
C         -4.25668       -6.09907        3.92456
C         -4.91336       -7.32996        4.08890
C         -5.85710       -7.51352        5.10125
C         -6.18123       -6.47999        5.99555
C         -5.51224       -5.25667        5.83785
C         -4.56555       -5.06988        4.82668
C          0.44388      -10.47172        5.85577
C         -0.04974      -11.76636        6.02903
C         -1.29473      -12.32733        5.43843
C         -1.25274      -13.79499        5.68244
C         -0.09734      -14.11184        6.41670
C          0.63652      -12.84874        6.72499
C          0.16276      -15.44885        6.72425
C         -0.74017      -16.43570        6.29681
C         -1.90202      -16.09723        5.57446
C         -2.16032      -14.75585        5.26405
C         -4.09891       -8.65948       -2.30959
C         -7.23306       -6.67894        7.07264
O         -2.18564      -11.72925        4.84920
C          1.72718      -12.75659        7.59096
C          2.36175      -13.88273        8.20553
N          2.93526      -14.74897        8.73770
Cl        -0.37125      -18.10105        6.68876
Cl        -3.04005      -17.31302        5.03996
C         -0.81041        3.51058        5.76350
C          2.72414       -1.00120       -2.57387
C          2.32066      -11.52835        8.02748
N          2.84639      -10.57338        8.44526
C         -7.72459        5.98961       -1.42781
N         -8.54048        5.35586       -0.88418
H         -1.00548        7.38753       -2.60060
H         -5.52350        9.27851       -3.54509
H         -6.30781        4.11846       -1.62531
H         -6.64140        1.87911       -1.03375
H         -0.05990       -2.45030        2.79429
H         -4.75061       -3.84685        1.58087
H          1.76770       -8.09591        5.60595
H          1.43815      -10.30926        6.24925
H          1.03788      -15.76167        7.26955
H         -3.04529      -14.47862        4.70789
H         -2.42608       -0.54963        4.06556
H          2.91792       -0.62160        0.15355
H          1.12735       -0.32328        1.78330
H          0.00334       -1.03379       -2.97982
H         -1.78922       -0.75236       -1.35290
H         -2.13213        1.08901        5.84591
H          0.04204        3.63584        3.14972
H         -0.24001        1.99536        1.36942
H         -5.53953       -6.36883        1.51594
H         -5.92108       -7.44288       -0.64004
H         -1.32836       -7.19247        1.17135
H         -1.71789       -8.28427       -0.97018
H         -4.07198       -4.10929        4.75081
H         -5.72736       -4.43355        6.51182
H         -6.34459       -8.47882        5.19256
H         -4.70150       -8.15396        3.42011
H         -0.83176        4.53321        5.37914
H         -1.58017        3.42252        6.53323
H          0.16068        3.36377        6.24962
H          2.45113       -1.71443       -3.35543
H          2.93508       -0.04387       -3.06333
H          3.65108       -1.34568       -2.11040
H         -7.13115       -7.65604        7.55206
H         -7.16504       -5.91325        7.84788
H         -8.24027       -6.62843        6.64443
H         -4.97498       -8.25296       -2.81987
H         -3.24157       -8.56378       -2.97993
H         -4.27603       -9.72970       -2.15458

  eps=4.88617
  epsinf=4.88617
  RSolv=8.36
 
