%mem=1000MW
%nprocshared=40
#p wB97XD/6-31g** nosymm pop=esp opt td=(nstates=2,root=1) scf=(MaxCycle=20000) iop(3/107=0001100000,3/108=0001100000) SCRF=(PCM,Solvent=Generic,Read)

 IT-4Cl opt-TDdft

0 1
C         -0.76482       -0.70991       -1.00546
C         -0.48440       -0.49905        0.35286
C          0.86408       -0.47939        0.74456
C          1.88830       -0.64843       -0.18986
C          1.61140       -0.84826       -1.55170
C          0.26203       -0.87687       -1.93760
C         -1.62077       -0.41558        1.40564
C         -2.98576       -0.06213        0.79838
C         -3.88228       -1.15329        0.93233
C         -3.26097       -2.25692        1.55380
C         -1.91443       -1.86127        1.88893
S         -5.49287       -0.83286        0.31333
C         -4.96777        0.79164       -0.13474
C         -3.59887        1.03208        0.19764
C         -5.60525        1.86374       -0.72818
C         -4.74745        2.99230       -0.89170
S         -3.11300        2.64182       -0.28786
C         -1.06860       -2.73233        2.52909
C         -1.55441       -4.03455        2.83389
C         -2.89123       -4.43975        2.47380
C         -3.74284       -3.56328        1.84859
C         -0.93883       -5.13184        3.47257
C         -1.79665       -6.26050        3.50449
C         -3.14642       -5.92309        2.85480
S          0.62512       -5.40213        4.21961
C          0.13519       -7.05852        4.58096
C         -1.19088       -7.34444        4.13252
S         -1.62604       -9.00147        4.48932
C         -0.04249       -9.29320        5.24374
C          0.76882       -8.12151        5.19504
C         -5.24940        4.20398       -1.41890
C         -4.68640        5.44297       -1.73669
C         -3.23482        5.76060       -1.81860
C         -3.13309        7.09940       -2.46202
C         -4.42414        7.59885       -2.70447
C         -5.42259        6.61480       -2.19119
C         -1.98518        7.79733       -2.80434
C         -2.12344        9.04524       -3.42603
C         -3.41041        9.55853       -3.68447
C         -4.56334        8.84239       -3.32373
Cl        -0.67699        9.92559       -3.86467
Cl        -3.62717       11.11003       -4.46487
O         -2.28942        5.07015       -1.46073
C         -6.79568        6.84973       -2.09770
C         -7.44665        8.01605       -2.61139
N         -8.04908        8.93278       -3.01053
C         -1.34579        0.57594        2.56743
C         -0.65952        1.78008        2.34336
C         -0.49490        2.71772        3.36505
C         -1.01378        2.49761        4.65097
C         -1.70742        1.29686        4.86897
C         -1.87387        0.35644        3.84926
C         -3.40213       -6.70156        1.53677
C         -4.69116       -6.78177        0.98465
C         -4.90935       -7.39795       -0.24931
C         -3.85265       -7.95871       -0.98529
C         -2.56520       -7.86797       -0.43487
C         -2.34283       -7.24876        0.79779
C         -4.25664       -6.09916        3.92447
C         -4.91337       -7.33006        4.08861
C         -5.85710       -7.51374        5.10094
C         -6.18116       -6.48036        5.99544
C         -5.51211       -5.25704        5.83795
C         -4.56544       -5.07013        4.82679
C          0.44382      -10.47168        5.85583
C         -0.04980      -11.76632        6.02908
C         -1.29472      -12.32734        5.43837
C         -1.25272      -13.79499        5.68243
C         -0.09740      -14.11178        6.41684
C          0.63639      -12.84866        6.72516
C          0.16269      -15.44877        6.72448
C         -0.74016      -16.43567        6.29697
C         -1.90192      -16.09725        5.57445
C         -2.16022      -14.75589        5.26396
C         -4.09882       -8.65911       -2.30984
C         -7.23294       -6.67947        7.07254
O         -2.18557      -11.72929        4.84903
C          1.72693      -12.75643        7.59129
C          2.36145      -13.88251        8.20601
N          2.93492      -14.74870        8.73831
Cl        -0.37125      -18.10099        6.68902
Cl        -3.03986      -17.31308        5.03987
C         -0.80973        3.51045        5.76368
C          2.72372       -1.00146       -2.57409
C          2.32027      -11.52815        8.02788
N          2.84590      -10.57314        8.44574
C         -7.72472        5.98957       -1.42822
N         -8.54067        5.35580       -0.88470
H         -1.00551        7.38761       -2.60034
H         -5.52350        9.27844       -3.54530
H         -6.30788        4.11847       -1.62529
H         -6.64149        1.87916       -1.03364
H         -0.05993       -2.45023        2.79436
H         -4.75065       -3.84677        1.58098
H          1.76768       -8.09588        5.60597
H          1.43807      -10.30920        6.24935
H          1.03777      -15.76155        7.26989
H         -3.04513      -14.47869        4.70770
H         -2.42570       -0.54965        4.06583
H          2.91775       -0.62177        0.15334
H          1.12733       -0.32333        1.78323
H          0.00292       -1.03370       -2.97982
H         -1.78951       -0.75212       -1.35277
H         -2.13143        1.08890        5.84620
H          0.04220        3.63588        3.14973
H         -0.24017        1.99550        1.36939
H         -5.53945       -6.36874        1.51586
H         -5.92102       -7.44262       -0.64020
H         -1.32828       -7.19234        1.17120
H         -1.71782       -8.28400       -0.97040
H         -4.07181       -4.10954        4.75108
H         -5.72716       -4.43404        6.51206
H         -6.34463       -8.47905        5.19210
H         -4.70158       -8.15395        3.41967
H         -0.83061        4.53310        5.37933
H         -1.57961        3.42270        6.53332
H          0.16125        3.36326        6.24993
H          2.45054       -1.71482       -3.35548
H          2.93461       -0.04422       -3.06372
H          3.65068       -1.34599       -2.11071
H         -7.13089       -7.65658        7.55193
H         -7.16502       -5.91381        7.84781
H         -8.24017       -6.62912        6.64437
H         -4.97527       -8.25301       -2.81981
H         -3.24173       -8.56280       -2.98041
H         -4.27527       -9.72946       -2.15498

  eps=4.88617
  epsinf=4.88617
  RSolv=8.36
 
