%mem=800MW
%nprocshared=64
%chk=IT-M-HSO-w-0003-T2paraS1.chk
%rwf=IT-M-HSO-w-0003-T2paraS1.rwf
#p wB97XD/6-31g** td(50-50,nstates=5) 6D 10F nosymm GFInput scf=(MaxCycle=20000) iop(3/107=0003000000,3/108=0003000000) SCRF=(PCM,Solvent=Generic,Read)

IT-M

0  1
C               0.1400500000     -0.4992300000      0.0259300000
C               0.1597600000     -0.3795000000      1.4204000000
C               1.3894300000     -0.1687500000      2.0723700000
C               2.5890300000     -0.0841700000      1.3718300000
C               2.5561900000     -0.2063000000     -0.0190500000
C               1.3411600000     -0.4112300000     -0.7036600000
C               1.1589000000     -0.0665300000      3.5307500000
C              -0.3193000000     -0.1920100000      3.7409800000
C              -0.9210100000     -0.4562700000      2.4449400000
C              -1.0081400000      0.0117500000      4.9405000000
C              -0.6281300000      0.2317300000      6.2860600000
S               1.0025400000      0.2868800000      6.9923100000
C               0.3418800000      0.5362800000      8.5931800000
C              -1.0761500000      0.5779900000      8.5571200000
C              -1.6214500000      0.4132000000      7.2918200000
C               0.8578400000      0.6965600000      9.8906400000
C              -0.1647100000      0.8551700000     10.8283500000
S              -1.7768700000      0.8208600000     10.1566100000
C               0.3695700000      1.0154800000     12.1602300000
C               1.7864800000      0.9961600000     12.0420600000
C               2.2323200000      0.7961300000     10.5696900000
C              -0.2697200000      1.1498000000     13.4051400000
C               0.5272400000      1.2619800000     14.5347200000
C               1.9444700000      1.2482000000     14.4162100000
C               2.5836600000      1.1127500000     13.1711900000
C               0.0806100000      1.3697400000     16.0164900000
C               1.4546900000      1.4276300000     16.7006200000
C               2.4783100000      1.3776600000     15.7515600000
S               4.0891500000      1.4923600000     16.4174900000
C               3.3860200000      1.6023200000     18.0309700000
C               1.9677100000      1.5567900000     18.0020700000
S               1.3038100000      1.6405400000     19.6196000000
C               2.9332400000      1.7511000000     20.3223800000
C               3.9290100000      1.7146300000     19.3028900000
C              -0.7248300000      0.0892600000     16.3588800000
C              -2.1049600000      0.0157400000     16.1123400000
C              -2.8165500000     -1.1654700000     16.3364100000
C              -2.1814800000     -2.3231900000     16.8109900000
C              -0.7985600000     -2.2502200000     17.0431800000
C              -0.0843700000     -1.0716600000     16.8185100000
C              -2.9564800000     -3.5990200000     17.0878800000
C              -0.6663400000      2.6944000000     16.3294100000
C              -1.5118600000      2.8052400000     17.4441500000
C              -2.1189700000      4.0201500000     17.7715200000
C              -1.9004200000      5.1766100000     17.0071000000
C              -1.0406400000      5.0663300000     15.9028300000
C              -0.4340600000      3.8529300000     15.5714500000
C               3.3063900000      1.8839400000     21.6808500000
C               2.6152500000      1.8954300000     22.8959800000
C               1.1603900000      1.6011000000     23.1028500000
C               0.9648100000      1.4506500000     24.5631100000
C               2.1845700000      1.6955200000     25.2235100000
C               3.2121400000      2.0666500000     24.2096100000
C               2.2447700000      1.5705500000     26.6149800000
C               1.0898100000      1.2127600000     27.3386000000
C              -0.1193500000      0.9929500000     26.6498900000
C              -0.1904900000      1.1091000000     25.2588600000
C               2.9662000000      2.0324500000      9.9831300000
C               3.7567200000      1.9178400000      8.8287300000
C               4.3577100000      3.0381300000      8.2505600000
C               4.1930300000      4.3202400000      8.7973700000
C               3.3911200000      4.4334000000      9.9436600000
C               2.7872300000      3.3151100000     10.5234700000
C               3.0582200000     -0.5140000000     10.5013600000
C               4.4439500000     -0.5039400000     10.7335400000
C               5.1780800000     -1.6904700000     10.7671000000
C               4.5617800000     -2.9378400000     10.5737100000
C               3.1765200000     -2.9446700000     10.3527400000
C               2.4378100000     -1.7582600000     10.3207300000
O               0.2988600000      1.4921200000     22.2393800000
C               4.4904000000      2.5651200000     24.5039100000
C               5.4012500000      3.0979600000     23.5381300000
N               6.1931400000      3.5652200000     22.8175900000
H              -1.0101000000      0.7245000000     27.2072500000
C              -2.5876600000      6.4875400000     17.3445100000
C               4.8789200000      5.5301400000      8.1885300000
C               5.3728500000     -4.2214700000     10.5766700000
C              -2.2586400000     -0.7896500000      2.1769500000
C              -3.2530000000     -1.0556100000      3.1698800000
N              -4.1185900000     -1.3084000000      3.9127700000
O               2.0155200000      0.1004000000      4.3900200000
H               3.4812700000     -0.1415700000     -0.5813700000
C               5.0276900000      2.6687000000     25.8248000000
N               5.5413600000      2.7799400000     26.8678600000
C              -2.7991700000     -0.9550000000      0.8638500000
N              -3.3235500000     -1.0967300000     -0.1702100000
H               3.5237200000      0.0721500000      1.8963100000
H              -0.7810400000     -0.6548800000     -0.5136800000
H              -2.0855700000      0.0171200000      4.8498000000
H              -2.6781700000      0.4079700000      7.0669000000
H               3.6620000000      1.0958000000     13.1021400000
H              -1.3480700000      1.1600200000     13.4740400000
H               4.9846100000      1.7743600000     19.5253200000
H               4.3810500000      1.9664200000     21.7712500000
H               3.1647300000      1.7314100000     27.1553500000
C               1.1539700000      1.0371200000     28.8443200000
H              -1.1204900000      0.9353100000     24.7316000000
H               2.1720400000      3.4571800000     11.4026100000
H               6.2477600000     -1.6385000000     10.9448100000
H               4.9636900000      0.4341100000     10.8833500000
H               2.6595200000     -3.8869700000     10.2021800000
H               1.3688600000     -1.8177700000     10.1582000000
H               3.2320500000      5.4068200000     10.3969600000
H               4.9616300000      2.9045900000      7.3588100000
H               3.9205900000      0.9489000000      8.3753400000
H              -2.6410300000      0.8840000000     15.7500200000
H              -3.8838500000     -1.1778200000     16.1389200000
H               0.9826900000     -1.0699400000     17.0019400000
H              -0.2662800000     -3.1239200000     17.4057800000
H               0.2285600000      3.8217200000     14.7158100000
H              -0.8361900000      5.9383000000     15.2894700000
H              -2.7698200000      4.0611800000     18.6391000000
H              -1.7117300000      1.9412700000     18.0643800000
H               5.0296500000      5.4052200000      7.1139600000
H               4.2995200000      6.4428100000      8.3458900000
H               5.8642800000      5.6858000000      8.6424900000
H               4.7439100000     -5.0941900000     10.7646200000
H               5.8652900000     -4.3716300000      9.6094800000
H               6.1543700000     -4.1977000000     11.3403500000
H              -2.7546000000      6.5877400000     18.4194500000
H              -1.9981000000      7.3455300000     17.0132600000
H              -3.5651400000      6.5517800000     16.8532500000
H              -3.9275400000     -3.5961600000     16.5887000000
H              -2.4059600000     -4.4808800000     16.7495900000
H              -3.1364400000     -3.7198400000     18.1617700000
C               1.3380500000     -0.5409800000     -2.2154900000
H               2.0175100000      1.5466100000     29.2742700000
H               0.2531600000      1.4232800000     29.3266700000
H               1.2338500000     -0.0252400000     29.0991500000
H               0.3297300000     -0.6657900000     -2.6117200000
H               1.7787300000      0.3449600000     -2.6820200000
H               1.9332900000     -1.4039600000     -2.5296400000
                                                
  eps=4.46238                                      
  epsinf=4.46238                                   
  RSolv=7.54                                       
 
