%mem=800MW
%nprocshared=64
%chk=IT-M-HSO-w-0003-T1paraS1.chk
%rwf=IT-M-HSO-w-0003-T1paraS1.rwf
#p wB97XD/6-31g** td(50-50,nstates=5) 6D 10F nosymm GFInput scf=(MaxCycle=20000) iop(3/107=0003000000,3/108=0003000000) SCRF=(PCM,Solvent=Generic,Read)

IT-M

0  1
C               0.1282700000     -0.4787700000      0.0408000000
C               0.1567400000     -0.3873000000      1.4372400000
C               1.3884500000     -0.1906700000      2.0879000000
C               2.5846100000     -0.0958700000      1.3828500000
C               2.5437400000     -0.1927600000     -0.0097500000
C               1.3252100000     -0.3802200000     -0.6932600000
C               1.1647200000     -0.1057000000      3.5506400000
C              -0.3067000000     -0.2261500000      3.7658700000
C              -0.9200400000     -0.4811700000      2.4668500000
C              -0.9912900000     -0.0293100000      4.9653300000
C              -0.6101300000      0.1946600000      6.3088200000
S               1.0228000000      0.2599100000      7.0095000000
C               0.3650300000      0.5128600000      8.6131900000
C              -1.0627100000      0.5463200000      8.5759300000
C              -1.6034900000      0.3748400000      7.3168800000
C               0.8786200000      0.6799700000      9.8948300000
C              -0.1543700000      0.8408500000     10.8542200000
S              -1.7719100000      0.7923300000     10.1737900000
C               0.3678300000      0.9999100000     12.1542200000
C               1.8061900000      0.9813800000     12.0466300000
C               2.2526500000      0.7847800000     10.5728000000
C              -0.2766500000      1.1432900000     13.4152200000
C               0.5096900000      1.2548400000     14.5345700000
C               1.9481300000      1.2380100000     14.4270800000
C               2.5925700000      1.0985400000     13.1656300000
C               0.0622000000      1.3755400000     16.0161300000
C               1.4355600000      1.4297500000     16.7000000000
C               2.4694700000      1.3702400000     15.7313800000
S               4.0852200000      1.4766000000     16.4091800000
C               3.3729200000      1.5941600000     18.0205300000
C               1.9457500000      1.5562600000     17.9880600000
S               1.2825700000      1.6502100000     19.6060500000
C               2.9133800000      1.7555800000     20.3069100000
C               3.9099100000      1.7093500000     19.2884100000
C              -0.7521900000      0.1044600000     16.3689800000
C              -2.1336800000      0.0402900000     16.1278000000
C              -2.8529200000     -1.1343900000     16.3609000000
C              -2.2245200000     -2.2943000000     16.8393900000
C              -0.8402200000     -2.2307100000     17.0656100000
C              -0.1181700000     -1.0587500000     16.8314500000
C              -3.0081700000     -3.5626200000     17.1261800000
C              -0.6710100000      2.7102400000     16.3187400000
C              -1.5176600000      2.8390500000     17.4308000000
C              -2.1114200000      4.0633900000     17.7470900000
C              -1.8773900000      5.2115400000     16.9745600000
C              -1.0155700000      5.0832900000     15.8738700000
C              -0.4222800000      3.8605300000     15.5535200000
C               3.2850700000      1.8936300000     21.6649400000
C               2.5954900000      1.9069800000     22.8760500000
C               1.1472100000      1.6141800000     23.0877100000
C               0.9607600000      1.4455900000     24.5495200000
C               2.1834000000      1.6796800000     25.2069700000
C               3.2026000000      2.0746200000     24.1924300000
C               2.2564600000      1.5266300000     26.5950100000
C               1.1080600000      1.1545800000     27.3206900000
C              -0.1060600000      0.9490300000     26.6359600000
C              -0.1888000000      1.0902000000     25.2479600000
C               2.9759900000      2.0273300000      9.9863100000
C               3.7653000000      1.9200600000      8.8302600000
C               4.3562900000      3.0456900000      8.2525700000
C               4.1824200000      4.3259100000      8.8013100000
C               3.3814900000      4.4315300000      9.9489700000
C               2.7870400000      3.3078500000     10.5281100000
C               3.0852100000     -0.5202400000     10.5003400000
C               4.4720000000     -0.5024000000     10.7255300000
C               5.2123200000     -1.6849800000     10.7563300000
C               4.6015800000     -2.9358100000     10.5667300000
C               3.2153500000     -2.9502800000     10.3530000000
C               2.4701500000     -1.7677600000     10.3245300000
O               0.2761500000      1.5123400000     22.2314700000
C               4.4644400000      2.5925400000     24.4865200000
C               5.3692700000      3.1345500000     23.5173500000
N               6.1529000000      3.6096600000     22.7940300000
H              -0.9926700000      0.6703500000     27.1950200000
C              -2.5499100000      6.5329300000     17.3003500000
C               4.8578500000      5.5418400000      8.1929500000
C               5.4197000000     -4.2148900000     10.5669500000
C              -2.2482600000     -0.8220000000      2.2004700000
C              -3.2453800000     -1.0796000000      3.1955100000
N              -4.1114300000     -1.3253300000      3.9392200000
O               2.0309500000      0.0483700000      4.4043300000
H               3.4663900000     -0.1203400000     -0.5752400000
C               4.9962300000      2.7143200000     25.8101700000
N               5.5036900000      2.8438800000     26.8534000000
C              -2.7864300000     -1.0073000000      0.8870200000
N              -3.3092900000     -1.1680100000     -0.1443200000
H               3.5223400000      0.0495900000      1.9049200000
H              -0.7967700000     -0.6189100000     -0.4962600000
H              -2.0692000000     -0.0298800000      4.8783800000
H              -2.6602200000      0.3637300000      7.0919500000
H               3.6712400000      1.0815100000     13.1025500000
H              -1.3553200000      1.1571100000     13.4778500000
H               4.9653600000      1.7648300000     19.5131200000
H               4.3601200000      1.9762000000     21.7551000000
H               3.1821300000      1.6749400000     27.1293500000
C               1.1838100000      0.9483800000     28.8220900000
H              -1.1227900000      0.9247200000     24.7252100000
H               2.1725600000      3.4440600000     11.4086400000
H               6.2825400000     -1.6272800000     10.9287900000
H               4.9874600000      0.4384100000     10.8726400000
H               2.7024500000     -3.8953100000     10.2058700000
H               1.4006600000     -1.8340600000     10.1681400000
H               3.2155800000      5.4031100000     10.4036600000
H               4.9598400000      2.9180200000      7.3597400000
H               3.9361300000      0.9529800000      8.3755900000
H              -2.6644000000      0.9103700000     15.7620700000
H              -3.9209900000     -1.1399000000     16.1674600000
H               0.9497800000     -1.0641900000     17.0100500000
H              -0.3130100000     -3.1065200000     17.4304300000
H               0.2423700000      3.8156900000     14.7001600000
H              -0.7987500000      5.9482100000     15.2548500000
H              -2.7639600000      4.1185100000     18.6125600000
H              -1.7284400000      1.9826500000     18.0578700000
H               5.0060200000      5.4203100000      7.1176500000
H               4.2726800000      6.4500800000      8.3543500000
H               5.8435400000      5.7030200000      8.6442000000
H               4.7960300000     -5.0914100000     10.7545500000
H               5.9117000000     -4.3609000000      9.5989100000
H               6.2020900000     -4.1876400000     11.3296200000
H              -2.7184800000      6.6429600000     18.3740500000
H              -1.9493000000      7.3812900000     16.9643200000
H              -3.5252800000      6.6049000000     16.8059800000
H              -3.9807500000     -3.5552700000     16.6300200000
H              -2.4653700000     -4.4505400000     16.7913100000
H              -3.1855700000     -3.6757300000     18.2013100000
C               1.3144700000     -0.4782000000     -2.2075500000
H               2.0438400000      1.4597300000     29.2569200000
H               0.2816300000      1.3135100000     29.3179100000
H               1.2786000000     -0.1178300000     29.0546100000
H               0.3051200000     -0.6063700000     -2.6000500000
H               1.7416300000      0.4226300000     -2.6580200000
H               1.9176800000     -1.3271200000     -2.5436100000
                                               
  eps=4.46238                                      
  epsinf=4.46238                                   
  RSolv=7.54                                       
 
