%mem=800MW
%nprocshared=64
#p wB97XD/6-31g** opt td=(nstates=2,root=1) pop=esp scf=(MaxCycle=20000) nosymm iop(3/107=0001100000,3/108=0001100000) SCRF=(PCM,Solvent=Generic,Read)

IT-4Cl

0  1
C         -5.06752       15.46182       -0.59779
C         -4.77696       14.11497       -0.36121
C         -4.62696       13.68121        0.96779
C         -4.75651       14.53081        2.05519
C         -5.04738       15.88068        1.81719
C         -5.20069       16.33638        0.49224
C         -4.31651       12.22834        0.97629
C         -4.27148       11.79274       -0.44604
C         -4.57556       12.95728       -1.27781
C         -3.97487       10.51143       -0.90197
C         -3.65809        9.27112       -0.28270
S         -3.53747        8.88300        1.44886
C         -3.13169        7.22413        1.08495
C         -3.09443        7.00418       -0.31926
C         -3.38641        8.12918       -1.07890
C         -2.82047        6.07538        1.82035
C         -2.54995        4.97951        0.97616
S         -2.67427        5.34252       -0.73140
C         -2.23117        3.81785        1.72461
C         -2.34313        4.16410        3.11723
C         -2.71777        5.65890        3.29258
C         -1.85468        2.51440        1.31209
C         -1.60037        1.57836        2.28708
C         -1.72921        1.91999        3.67956
C         -2.10037        3.22496        4.09217
C         -1.13250        0.10960        2.11347
C         -1.06852       -0.31764        3.58470
C         -1.42793        0.75341        4.42760
S         -1.42319        0.35632        6.13202
C         -0.93452       -1.28676        5.71982
C         -0.79199       -1.47658        4.31801
S         -0.30970       -3.11444        3.95267
C         -0.29792       -3.53400        5.68098
C         -0.66229       -2.41822        6.47722
C          0.25684        0.14728        1.42352
C          0.36425        0.21579        0.02468
C          1.60741        0.35080       -0.59663
C          2.79483        0.42453        0.14971
C          2.68233        0.36190        1.54730
C          1.43990        0.23131        2.17244
C          4.14966        0.54323       -0.52557
C         -2.18242       -0.78647        1.40471
C         -1.80407       -1.96418        0.74072
C         -2.76031       -2.81759        0.18599
C         -4.13320       -2.53668        0.27737
C         -4.50791       -1.36415        0.95251
C         -3.55447       -0.50774        1.50791
C          0.02351       -4.77406        6.29808
C          0.38958       -6.03625        5.83953
C          0.49019       -6.45832        4.41589
C          0.80035       -7.91160        4.42384
C          0.91360       -8.35407        5.75374
C          0.69651       -7.19975        6.67092
C          1.19475       -9.70288        5.99001
C          1.35564      -10.57101        4.89854
C          1.24101      -10.10645        3.57274
C          0.95991       -8.75441        3.33514
C         -4.10938        5.86483        3.94871
C         -4.44022        7.07488        4.58062
C         -5.71411        7.28538        5.11126
C         -6.71383        6.30192        5.02758
C         -6.38563        5.10234        4.37764
C         -5.11168        4.88842        3.84463
C         -1.54807        6.34844        4.04323
C         -1.50155        6.36459        5.44713
C         -0.40854        6.90750        6.12525
C          0.68527        7.45323        5.43338
C          0.64167        7.42079        4.03107
C         -0.44921        6.87578        3.34905
O          0.34467       -5.76842        3.41440
C          0.81059       -7.26693        8.06339
C          0.67658       -6.15904        8.95867
N          0.59038       -5.31077        9.75735
Cl         1.43792      -11.17476        2.20205
Cl         1.70418      -12.25201        5.24169
C         -5.16618       -3.45882       -0.34538
C         -8.08507        6.52606        5.63960
C          1.85271        8.08207        6.17288
C         -4.68257       13.02973       -2.67081
C         -4.51259       11.93358       -3.57432
N         -4.39214       11.09804       -4.38198
O         -4.13481       11.54697        1.97775
Cl        -5.20775       16.95698        3.18655
Cl        -5.56361       18.01420        0.14830
C          1.10806       -8.46422        8.78804
N          1.34470       -9.39344        9.45487
C         -4.99115       14.22711       -3.39067
N         -5.23813       15.15670       -4.05326
H         -4.63401       14.16102        3.06407
H         -5.19396       15.86499       -1.58861
H         -3.96942       10.39815       -1.97665
H         -3.40851        8.15746       -2.15864
H         -2.18761        3.46402        5.14192
H         -1.76924        2.27554        0.26216
H         -0.71712       -2.46939        7.55495
H         -0.05358       -4.68189        7.37215
H          1.29230      -10.11224        6.98160
H          0.86694       -8.37786        2.32561
H         -4.91194        3.94816        3.34657
H         -0.41432        6.90650        7.21065
H         -2.32331        5.96108        6.02517
H          1.46820        7.82547        3.45594
H         -0.42798        6.86410        2.26658
H         -7.13056        4.31879        4.28314
H         -5.92678        8.23204        5.59735
H         -3.70148        7.85991        4.67451
H         -0.52217        0.15736       -0.59439
H          1.64771        0.39860       -1.68020
H          1.40638        0.20208        3.25412
H          3.57396        0.41847        2.16349
H         -3.89587        0.37823        2.02860
H         -5.55877       -1.11283        1.05457
H         -2.42565       -3.71764       -0.31948
H         -0.75815       -2.22469        0.64674
H         -8.45597        7.53261        5.42917
H         -8.81695        5.80985        5.26103
H         -8.04510        6.41441        6.72880
H          2.78357        7.98693        5.60921
H          1.67582        9.15095        6.33675
H          2.00172        7.62090        7.15191
H         -4.89278       -4.50885       -0.21494
H         -6.15387       -3.31030        0.09588
H         -5.25407       -3.27497       -1.42194
H          4.06448        0.98727       -1.51964
H          4.83472        1.15866        0.06264
H          4.61325       -0.44271       -0.64259
                                                
  eps=4.88617                                      
  epsinf=4.88617                                   
  RSolv=8.36                                       
    
