%mem=1000MW
%nprocshared=40
#p wB97XD/6-31g** nosymm pop=esp opt td=(nstates=2,root=1) scf=(MaxCycle=20000) iop(3/107=0001100000,3/108=0001100000) SCRF=(PCM,Solvent=Generic,Read)

 IT-4Cl opt-TDdft

0 1
C         -0.18014       -0.27914       -0.18135
C         -0.13931       -0.12940        1.21257
C          1.12286       -0.04500        1.82305
C          2.29402       -0.08751        1.06391
C          2.25636       -0.22205       -0.33400
C          0.99398       -0.32063       -0.93813
C         -1.43685       -0.18694        2.05921
C         -2.69932        0.18479        1.26765
C         -3.57171       -0.93081        1.17983
C         -3.01447       -2.07004        1.79812
C         -1.74133       -1.68006        2.35352
S         -5.07454       -0.59737        0.33855
C         -4.53634        1.06397        0.08603
C         -3.24428        1.30529        0.65178
C         -5.11992        2.14806       -0.54472
C         -4.29119        3.29888       -0.50711
S         -2.76574        2.95747        0.36335
C         -0.95630       -2.59335        3.01231
C         -1.43737       -3.92772        3.12733
C         -2.71156       -4.31734        2.57453
C         -3.49680       -3.40398        1.91605
C         -0.86763       -5.07458        3.72159
C         -1.69892       -6.21071        3.55639
C         -2.98443       -5.82720        2.80967
S          0.61638       -5.39755        4.60002
C          0.12735       -7.08634        4.74965
C         -1.13864       -7.34270        4.14112
S         -1.58022       -9.02794        4.30666
C         -0.07791       -9.37242        5.19314
C          0.71456       -8.19498        5.32850
C         -4.46678        4.61774       -0.98141
C         -5.44418        5.21766       -1.78611
C         -6.47665        4.54703       -2.63271
C         -7.00561        5.59753       -3.54823
C         -6.40076        6.83040       -3.25361
C         -5.49298        6.64360       -2.08544
C         -7.94088        5.44810       -4.56057
C         -8.27891        6.57064       -5.32775
C         -7.66718        7.81138       -5.05859
C         -6.73029        7.94882       -4.02126
Cl        -9.45786        6.38408       -6.60660
Cl        -8.05000        9.23353       -6.00434
O         -6.83306        3.37576       -2.63611
C         -4.90138        7.68068       -1.36248
C         -4.94918        9.05710       -1.75162
N         -4.93842       10.19527       -2.01041
C         -1.40837        0.69192        3.33906
C         -0.78438        1.95067        3.33529
C         -0.82834        2.78075        4.45677
C         -1.50271        2.39446        5.62710
C         -2.13623        1.14270        5.62250
C         -2.09430        0.30904        4.50123
C         -3.11716       -6.50748        1.42230
C         -4.35710       -6.57474        0.76646
C         -4.46455       -7.10862       -0.51937
C         -3.33987       -7.59330       -1.20680
C         -2.10042       -7.51053       -0.55405
C         -1.98908       -6.97521        0.73193
C         -4.18310       -6.08592        3.76312
C         -4.82795       -7.33404        3.79056
C         -5.85046       -7.59786        4.70312
C         -6.27071       -6.63150        5.63220
C         -5.61650       -5.39091        5.61027
C         -4.59108       -5.12375        4.69845
C          0.36160      -10.59455        5.75351
C         -0.13701      -11.89810        5.78862
C         -1.32967      -12.41020        5.06114
C         -1.32102      -13.88938        5.22434
C         -0.23093      -14.26198        6.02876
C          0.48717      -13.02861        6.46733
C         -0.00819      -15.61746        6.27923
C         -0.88471      -16.56670        5.72957
C         -1.98310      -16.17308        4.93901
C         -2.20181      -14.81333        4.68295
C         -3.46584       -8.20935       -2.58913
C         -7.39761       -6.92296        6.60729
O         -2.16062      -11.76861        4.43135
C          1.50963      -13.00547        7.41686
C          2.07524      -14.17658        8.01491
N          2.59030      -15.08173        8.54203
Cl        -0.56485      -18.25549        6.05875
Cl        -3.09115      -17.34137        4.25589
C         -1.52151        3.29140        6.85218
C          3.53245       -0.23155       -1.15700
C          2.09262      -11.81675        7.96293
N          2.60656      -10.89927        8.46975
C         -4.24130        7.51580       -0.10154
N         -3.71527        7.47010        0.93949
H         -8.39903        4.48815       -4.75491
H         -6.28536        8.91687       -3.85929
H         -3.66782        5.28406       -0.68263
H         -6.08258        2.15556       -1.02658
H          0.00067       -2.31850        3.43216
H         -4.45144       -3.67949        1.49136
H          1.66617       -8.19654        5.84010
H          1.31458      -10.45953        6.24621
H          0.81839      -15.97127        6.87303
H         -3.03623      -14.49351        4.07392
H         -2.60622       -0.64359        4.54646
H          3.24993       -0.01192        1.57254
H          1.20389        0.06234        2.89742
H          0.91688       -0.43358       -2.01473
H         -1.12986       -0.37248       -0.69308
H         -2.67314        0.80610        6.50362
H         -0.33025        3.74397        4.41380
H         -0.24721        2.28950        2.45898
H         -5.25378       -6.21735        1.25687
H         -5.44207       -7.14850       -0.98934
H         -1.00868       -6.92258        1.18845
H         -1.20382       -7.86789       -1.05042
H         -4.11181       -4.15380        4.73099
H         -5.90446       -4.61676        6.31430
H         -6.32526       -8.57366        4.68759
H         -4.54502       -8.10870        3.09008
H         -1.71158        4.33310        6.58039
H         -2.28884        2.98301        7.56484
H         -0.55666        3.26098        7.37022
H          3.38142       -0.70914       -2.12733
H          3.88142        0.79041       -1.34275
H          4.33728       -0.76104       -0.64072
H         -7.25356       -7.88812        7.10096
H         -7.46943       -6.15593        7.38066
H         -8.36171       -6.96438        6.08903
H         -4.29190       -7.76733       -3.15090
H         -2.55057       -8.07709       -3.17049
H         -3.65614       -9.28600       -2.51609

  eps=4.88617
  epsinf=4.88617
  RSolv=8.36
 
