%mem=1000MW
%nprocshared=40
#p wB97XD/6-31g** nosymm pop=esp opt td=(triplet,nstates=2,root=1) scf=(MaxCycle=20000) iop(3/107=0001100000,3/108=0001100000) SCRF=(PCM,Solvent=Generic,Read)

 IT-4Cl opt-TDdft

0 1
C         -0.17992       -0.27938       -0.18136
C         -0.13922       -0.12956        1.21254
C          1.12290       -0.04519        1.82313
C          2.29413       -0.08781        1.06410
C          2.25659       -0.22245       -0.33380
C          0.99427       -0.32099       -0.93804
C         -1.43682       -0.18698        2.05908
C         -2.69922        0.18471        1.26741
C         -3.57163       -0.93087        1.17964
C         -3.01446       -2.07008        1.79806
C         -1.74138       -1.68007        2.35351
S         -5.07442       -0.59746        0.33822
C         -4.53620        1.06387        0.08568
C         -3.24414        1.30517        0.65144
C         -5.11978        2.14796       -0.54506
C         -4.29104        3.29880       -0.50745
S         -2.76554        2.95733        0.36290
C         -0.95640       -2.59335        3.01242
C         -1.43752       -3.92769        3.12749
C         -2.71167       -4.31733        2.57466
C         -3.49685       -3.40398        1.91606
C         -0.86780       -5.07454        3.72184
C         -1.69908       -6.21067        3.55665
C         -2.98459       -5.82718        2.80991
S          0.61618       -5.39746        4.60037
C          0.12716       -7.08626        4.75000
C         -1.13880       -7.34264        4.14142
S         -1.58037       -9.02789        4.30699
C         -0.07802       -9.37236        5.19343
C          0.71437       -8.19487        5.32888
C         -4.46666        4.61768       -0.98164
C         -5.44409        5.21763       -1.78630
C         -6.47652        4.54704       -2.63302
C         -7.00555        5.59764       -3.54839
C         -6.40074        6.83051       -3.25361
C         -5.49295        6.64361       -2.08547
C         -7.94083        5.44831       -4.56072
C         -8.27894        6.57093       -5.32774
C         -7.66725        7.81166       -5.05844
C         -6.73033        7.94901       -4.02112
Cl        -9.45795        6.38450       -6.60655
Cl        -8.05019        9.23393       -6.00397
O         -6.83291        3.37577       -2.63653
C         -4.90143        7.68060       -1.36232
C         -4.94931        9.05708       -1.75123
N         -4.93857       10.19530       -2.00977
C         -1.40839        0.69199        3.33885
C         -0.78442        1.95075        3.33501
C         -0.82843        2.78091        4.45643
C         -1.50284        2.39469        5.62678
C         -2.13634        1.14292        5.62223
C         -2.09436        0.30920        4.50102
C         -3.11732       -6.50754        1.42258
C         -4.35729       -6.57498        0.76683
C         -4.46477       -7.10895       -0.51896
C         -3.34007       -7.59354       -1.20643
C         -2.10060       -7.51060       -0.55377
C         -1.98924       -6.97519        0.73218
C         -4.18328       -6.08580        3.76335
C         -4.82837       -7.33380        3.79066
C         -5.85090       -7.59752        4.70321
C         -6.27095       -6.63117        5.63241
C         -5.61652       -5.39071        5.61058
C         -4.59108       -5.12365        4.69876
C          0.36155      -10.59450        5.75370
C         -0.13697      -11.89809        5.78865
C         -1.32961      -12.41019        5.06112
C         -1.32073      -13.88939        5.22398
C         -0.23066      -14.26201        6.02843
C          0.48726      -13.02863        6.46726
C         -0.00775      -15.61751        6.27863
C         -0.88409      -16.56676        5.72869
C         -1.98247      -16.17313        4.93811
C         -2.20134      -14.81336        4.68232
C         -3.46607       -8.20969       -2.58873
C         -7.39787       -6.92253        6.60750
O         -2.16050      -11.76860        4.43125
C          1.50966      -13.00548        7.41685
C          2.07541      -14.17660        8.01476
N          2.59064      -15.08167        8.54184
Cl        -0.56402      -18.25557        6.05754
Cl        -3.09029      -17.34144        4.25467
C         -1.52168        3.29172        6.85180
C          3.53277       -0.23207       -1.15667
C          2.09252      -11.81676        7.96306
N          2.60631      -10.89926        8.47002
C         -4.24136        7.51553       -0.10141
N         -3.71537        7.46971        0.93965
H         -8.39896        4.48837       -4.75518
H         -6.28545        8.91705       -3.85902
H         -3.66772        5.28402       -0.68281
H         -6.08246        2.15544       -1.02686
H          0.00056       -2.31850        3.43228
H         -4.45148       -3.67949        1.49137
H          1.66598       -8.19637        5.84049
H          1.31451      -10.45946        6.24644
H          0.81884      -15.97134        6.87240
H         -3.03575      -14.49353        4.07329
H         -2.60627       -0.64344        4.54631
H          3.25000       -0.01223        1.57282
H          1.20384        0.06223        2.89751
H          0.91726       -0.43402       -2.01463
H         -1.12960       -0.37271       -0.69319
H         -2.67328        0.80638        6.50337
H         -0.33034        3.74413        4.41342
H         -0.24722        2.28954        2.45871
H         -5.25399       -6.21768        1.25728
H         -5.44231       -7.14897       -0.98885
H         -1.00880       -6.92244        1.18862
H         -1.20399       -7.86789       -1.05018
H         -4.11163       -4.15379        4.73138
H         -5.90432       -4.61656        6.31470
H         -6.32588       -8.57323        4.68761
H         -4.54557       -8.10847        3.09012
H         -1.71183        4.33339        6.57993
H         -2.28899        2.98333        7.56448
H         -0.55683        3.26141        7.36983
H          3.38182       -0.70978       -2.12695
H          3.88179        0.78986       -1.34251
H          4.33754       -0.76153       -0.64025
H         -7.25383       -7.88766        7.10127
H         -7.46970       -6.15544        7.38081
H         -8.36196       -6.96400        6.08923
H         -4.29211       -7.76767       -3.15054
H         -2.55079       -8.07751       -3.17009
H         -3.65643       -9.28632       -2.51561

  eps=4.88617
  epsinf=4.88617
  RSolv=8.36
 
