%mem=800MW
%nprocshared=64
#p wB97XD/6-31g** opt td=(nstates=2,root=1) pop=esp scf=(MaxCycle=20000) nosymm iop(3/107=0003000000,3/108=0003000000) SCRF=(PCM,Solvent=Generic,Read)

IT-2F

0  1
   C    -5.028493    15.456795    -0.508113        
   C    -4.700580    14.114951    -0.294403        
   C    -4.603504    13.629082     1.022564        
   C    -4.821573    14.435064     2.133326        
   C    -5.148744    15.773913     1.929613        
   C    -5.243222    16.247091     0.619609        
   C    -4.249979    12.195200     0.996270        
   C    -4.130856    11.810303    -0.430624        
   C    -4.409451    13.001415    -1.239062        
   C    -3.815351    10.553338    -0.902255        
   C    -3.520949     9.309658    -0.284015        
   S    -3.450044     8.899963     1.447788        
   C    -3.045212     7.254007     1.063733        
   C    -2.973610     7.045319    -0.330606        
   C    -3.238404     8.188034    -1.081701        
   C    -2.760124     6.084614     1.801741        
   C    -2.486603     5.012821     0.969682        
   S    -2.561194     5.381610    -0.734691        
   C    -2.203319     3.819606     1.731652        
   C    -2.329957     4.168790     3.102599        
   C    -2.706882     5.659202     3.270537        
   C    -1.847338     2.524315     1.327947        
   C    -1.625860     1.576777     2.314107        
   C    -1.742178     1.928573     3.685341        
   C    -2.090985     3.225903     4.089188        
   C    -1.213782     0.095903     2.146495        
   C    -1.103250    -0.314788     3.615983        
   C    -1.427246     0.743353     4.447502        
   S    -1.373142     0.368089     6.151303        
   C    -0.891052    -1.276983     5.747702        
   C    -0.798672    -1.479371     4.353716        
   S    -0.315183    -3.103939     3.969886        
   C    -0.234261    -3.512085     5.701779        
   C    -0.577910    -2.407268     6.498983        
   C     0.130497     0.041713     1.391621        
   C     0.160304     0.052576    -0.010498        
   C     1.369449     0.089861    -0.701367        
   C     2.594709     0.114034    -0.022946        
   C     2.560741     0.108655     1.375640        
   C     1.352916     0.074780     2.072180        
   C     3.903931     0.115020    -0.774806        
   C    -2.308968    -0.768419     1.481665        
   C    -1.995888    -2.045329     0.991509        
   C    -2.984765    -2.875781     0.469619        
   C    -4.323411    -2.466909     0.413160        
   C    -4.633290    -1.196240     0.908935        
   C    -3.647203    -0.361234     1.434958        
   C     0.110240    -4.742531     6.320573        
   C     0.483465    -5.983921     5.849891        
   C     0.626099    -6.362322     4.423423        
   C     1.036184    -7.781123     4.398121        
   C     1.144190    -8.264161     5.715284        
   C     0.806895    -7.163065     6.659126        
   C     1.520786    -9.593008     5.929949        
   C     1.771332   -10.373710     4.802954        
   C     1.667525    -9.902990     3.492788        
   C     1.291497    -8.577165     3.288112        
   C    -4.106884     5.868594     3.889952        
   C    -4.479329     7.132975     4.371114        
   C    -5.765155     7.367624     4.851825        
   C    -6.730000     6.352186     4.874551        
   C    -6.357355     5.094685     4.388598        
   C    -5.071483     4.854867     3.903123        
   C    -1.588643     6.359813     4.070306        
   C    -1.606531     6.356515     5.472694        
   C    -0.557432     6.909330     6.203854        
   C     0.547113     7.489608     5.567129        
   C     0.563752     7.486131     4.168267        
   C    -0.482166     6.930876     3.431538        
   O     0.443636    -5.652484     3.440698        
   C     0.815263    -7.286166     8.037388        
   C     0.494178    -6.224915     8.939130        
   N     0.238551    -5.381874     9.702260        
   F     2.134372   -11.653852     4.989949        
   C    -5.385918    -3.357915    -0.184043        
   C    -8.112630     6.603109     5.426621        
   C     1.663778     8.122163     6.362350        
   C    -4.414553    13.125322    -2.617260        
   C    -4.133341    12.053362    -3.519653        
   N    -3.908780    11.201911    -4.283217        
   O    -4.090562    11.479400     1.978693        
   H    -5.331344    16.455806     2.752541        
   C     1.149803    -8.498233     8.716575        
   N     1.415743    -9.466016     9.308203        
   C    -4.703396    14.349524    -3.295648        
   N    -4.932962    15.326947    -3.886662        
   H    -4.734999    14.015694     3.130263        
   H    -5.123474    15.907995    -1.485702        
   H    -3.773557    10.453030    -1.980895        
   H    -3.236362     8.242563    -2.164334        
   H    -2.163190     3.482656     5.141188        
   H    -1.742054     2.276498     0.276579        
   H    -0.587742    -2.464590     7.581427        
   H     0.056973    -4.645655     7.399014        
   H     1.626692   -10.041300     6.907748        
   H     1.195631    -8.160316     2.290967        
   H    -4.824881     3.866513     3.531070        
   H    -0.600708     6.892073     7.290133        
   H    -2.453819     5.930446     6.000565        
   H     1.407597     7.925082     3.641941        
   H    -0.428492     6.940654     2.347968        
   H    -7.083199     4.285267     4.387151        
   H    -6.021659     8.360133     5.213451        
   H    -3.756434     7.942296     4.381457        
   H    -0.769046     0.016744    -0.570089        
   H     1.359536     0.096533    -1.788556        
   H     1.368620     0.078841     3.157057        
   H     3.493367     0.130456     1.933777        
   H    -3.930612     0.614946     1.812809        
   H    -5.663458    -0.849541     0.885692        
   H    -2.708589    -3.860709     0.101842        
   H    -0.968320    -2.394032     1.006655        
   H    -8.468136     7.606512     5.172707        
   H    -8.835366     5.879318     5.039454        
   H    -8.123724     6.523400     6.520796        
   H     2.609112     8.099487     5.812449        
   H     1.443453     9.173048     6.587793        
   H     1.814462     7.610822     7.317878        
   H    -5.199158    -4.411386     0.045883        
   H    -6.380936    -3.100380     0.189909        
   H    -5.413332    -3.265256    -1.276938        
   H     3.814634     0.634042    -1.733863        
   H     4.696129     0.601331    -0.198146        
   H     4.238216    -0.907754    -0.989025        
   H     1.880741   -10.576668     2.670458        
   F    -5.559873    17.539622     0.433577        
                                                   
  eps=4.35875                                      
  epsinf=4.35875                                   
  RSolv=8.17                                       
                                                   
                                                   
 
