%mem=800MW
%nprocshared=64
#p wB97XD/6-31g** opt td=(nstates=2,root=1) pop=esp scf=(MaxCycle=20000) nosymm iop(3/107=0003000000,3/108=0003000000) SCRF=(PCM,Solvent=Generic,Read)

IT-2F

0  1
C         -4.98058       15.45357       -0.71216
C         -4.76452       14.10596       -0.40614
C         -4.39557       13.74640        0.90711
C         -4.24881       14.68722        1.92238
C         -4.46352       16.03667        1.62636
C         -4.81823       16.38186        0.32007
C         -4.19753       12.27820        0.97431
C         -4.41059       11.75651       -0.40747
C         -4.86261       12.87190       -1.23371
C         -4.11150       10.48033       -0.86855
C         -3.70539        9.26243       -0.25681
S         -3.53722        8.89082        1.47351
C         -3.11647        7.23409        1.11238
C         -3.09163        7.01063       -0.29165
C         -3.42099        8.12510       -1.05183
C         -2.78122        6.09119        1.84687
C         -2.50423        4.99802        1.00222
S         -2.64906        5.35576       -0.70455
C         -2.17537        3.83805        1.74832
C         -2.29058        4.18012        3.14094
C         -2.67010        5.67365        3.31855
C         -1.79210        2.53793        1.33309
C         -1.54150        1.59879        2.30574
C         -1.68001        1.93341        3.69849
C         -2.05147        3.23743        4.11369
C         -1.07414        0.13100        2.12764
C         -1.02977       -0.30682        3.59614
C         -1.39034        0.76063        4.44215
S         -1.40997        0.34891        6.14320
C         -0.93495       -1.29636        5.72341
C         -0.77503       -1.47490        4.32256
S         -0.30220       -3.11400        3.94890
C         -0.33821       -3.55429        5.67103
C         -0.69548       -2.44111        6.47280
C          0.32475        0.17457        1.45816
C          0.45187        0.25536        0.06178
C          1.70333        0.39638       -0.54079
C          2.87981        0.46502        0.22303
C          2.74780        0.38998        1.61797
C          1.49700        0.25206        2.22438
C          4.24323        0.59093       -0.43269
C         -2.11226       -0.75747        1.39362
C         -1.72379       -1.93187        0.72995
C         -2.67075       -2.77902        0.15047
C         -4.04413       -2.49485        0.21566
C         -4.42932       -1.32573        0.89038
C         -3.48523       -0.47559        1.47045
C         -0.09294       -4.81899        6.27548
C          0.25808       -6.08001        5.80662
C          0.57186       -6.43687        4.39313
C          0.96054       -7.86544        4.38732
C          0.88002       -8.37353        5.70019
C          0.42867       -7.28574        6.61498
C          1.19818       -9.71684        5.93081
C          1.58746      -10.48508        4.82998
C          1.67295       -9.98975        3.52671
C          1.34970       -8.64841        3.30436
C         -4.05831        5.87490        3.98187
C         -4.38906        7.08403        4.61618
C         -5.66074        7.29132        5.15166
C         -6.65879        6.30562        5.07134
C         -6.33026        5.10668        4.42189
C         -5.05788        4.89601        3.88291
C         -1.50005        6.36564        4.06581
C         -1.44403        6.36993        5.46931
C         -0.35098        6.91544        6.14487
C          0.73353        7.47591        5.45062
C          0.68031        7.45634        4.04866
C         -0.41077        6.90884        3.36917
O          0.53017       -5.70215        3.41272
C          0.20371       -7.45130        7.98615
C         -0.29671       -6.44407        8.87011
N         -0.70674       -5.68368        9.65679
F          1.89747      -11.78214        5.04446
C         -5.06734       -3.40963       -0.43284
C         -8.03308        6.53946        5.67244
C          1.90095        8.10702        6.18766
C         -5.38015       12.81890       -2.53143
C         -5.65308       11.61129       -3.24907
N         -5.92070       10.67159       -3.88927
O         -3.89638       11.63785        1.97474
H         -4.35856       16.80772        2.37827
C          0.43591       -8.67084        8.69688
N          0.60287       -9.62274        9.35275
C         -5.76077       13.96965       -3.29081
N         -6.08431       14.85995       -3.97390
H         -3.97242       14.37895        2.92275
H         -5.25262       15.81118       -1.69220
H         -4.17814       10.35626       -1.94133
H         -3.47183        8.14614       -2.13091
H         -2.14523        3.47238        5.16398
H         -1.70186        2.30228        0.28259
H         -0.77854       -2.50632        7.54795
H         -0.22015       -4.74616        7.34626
H          1.16023      -10.18807        6.89915
H          1.40132       -8.22390        2.30979
H         -4.85685        3.95576        3.38517
H         -0.34882        6.90437        7.23028
H         -2.25898        5.95521        6.04918
H          1.49962        7.87323        3.47185
H         -0.39800        6.90789        2.28649
H         -7.07343        4.32097        4.33147
H         -5.87421        8.23719        5.63905
H         -3.65101        7.86998        4.70839
H         -0.42594        0.20201       -0.57003
H          1.75949        0.45364       -1.62324
H          1.44752        0.21170        3.30506
H          3.63064        0.44170        2.24718
H         -3.83450        0.40837        1.98938
H         -5.48151       -1.07259        0.97283
H         -2.32822       -3.67695       -0.35356
H         -0.67678       -2.19520        0.65659
H         -8.48723        7.45048        5.27122
H         -8.71068        5.70879        5.46730
H         -7.96917        6.66037        6.75868
H          2.82958        8.01980        5.61896
H          1.71952        9.17410        6.35804
H          2.05721        7.64150        7.16350
H         -4.79221       -4.46083       -0.31665
H         -6.05986       -3.27116        0.00094
H         -5.14537       -3.20852       -1.50710
H          4.17278        1.05939       -1.41674
H          4.92540        1.18714        0.17805
H          4.70174       -0.39492       -0.56880
H          1.98284      -10.64258        2.72125
F         -5.01637       17.68639        0.03280
                                                   
  eps=4.35875                                      
  epsinf=4.35875                                   
  RSolv=8.17                                       
                                                   
 
