%mem=800MW
%nprocshared=32
%chk=Y6-HSO-scan-65-S1fromT2.chk
%rwf=Y6-HSO-scan-65-S1fromT2.rwf
#p wB97XD/6-31g** td(50-50,nstates=5) 6D 10F nosymm GFInput scf=(MaxCycle=20000) iop(3/107=0016000000,3/108=0016000000) SCRF=(PCM,Solvent=Generic,Read)

 HSO

0 1
C              13.8881400000      2.4093300000     16.9027700000
C              12.5811800000      2.0364700000     16.5701500000
C              11.9459100000      2.6572300000     15.4785400000
C              12.5653400000      3.6268700000     14.6976300000
C              13.8631400000      3.9926300000     15.0388700000
C              14.5068400000      3.3904300000     16.1302300000
C              10.5754900000      2.1049000000     15.3329500000
C              10.3808700000      1.1537500000     16.4712000000
C              11.6547800000      1.0305900000     17.1525300000
C               9.1655200000      0.6296800000     16.9255300000
C               7.8552900000      0.5738000000     16.3971500000
C               6.7437600000      0.0894800000     17.1656100000
C               5.5873900000      0.0195300000     16.3850700000
C               5.7488500000      0.4340600000     15.0442800000
S               7.3776000000      0.9621200000     14.7291500000
S               3.9367400000     -0.5181100000     16.7523800000
C               3.4843300000     -0.1774800000     15.1000900000
C               4.5471700000      0.3174800000     14.3198900000
C               2.3407000000     -0.2275600000     14.2815600000
C               2.7577100000      0.2016900000     12.9865800000
N               4.0997700000      0.5700300000     13.0327600000
C               0.9554700000     -0.5097000000     14.5389900000
C              -0.0165200000     -0.3270800000     13.4797500000
C               0.4375300000     -0.0036900000     12.1549400000
C               1.8298500000      0.1733000000     11.8965200000
C              -0.2089900000      0.0876500000     10.9081100000
C               0.7833600000      0.2637800000      9.9246600000
N               2.0311300000      0.2997700000     10.5250300000
C               0.2586600000      0.3096900000      8.6190300000
C              -1.1479200000      0.1848200000      8.6221700000
S              -1.8253000000     -0.0065500000     10.2514500000
C              -1.7468400000      0.2482100000      7.3619600000
C              -0.7622300000      0.4205500000      6.3310900000
S               0.8771200000      0.5510200000      7.0094900000
N              -1.2700600000     -0.5540700000     13.8577300000
S              -1.2129700000     -0.9774300000     15.4564300000
N               0.4212500000     -0.8761100000     15.6993000000
C              -1.1073400000      0.4087500000      4.9599300000
C              -0.4064100000      0.6365600000      3.7704500000
C              -0.9504300000      0.5077300000      2.4319000000
C               0.0019800000      1.1527500000      1.4899800000
C               1.1447100000      1.5551600000      2.2056800000
C               0.9623400000      1.2242600000      3.6402100000
C               2.2407000000      2.1604200000      1.6005700000
C               2.1753300000      2.3799000000      0.2289500000
C               1.0392700000      1.9940800000     -0.4980700000
C              -0.0517800000      1.3755900000      0.1092400000
F               3.1970800000      2.9655800000     -0.4169800000
F               1.0098600000      2.2292700000     -1.8190300000
C              -2.1174300000     -0.1703200000      2.0484600000
C              -2.8789800000     -1.0197800000      2.9073500000
N              -3.5346600000     -1.7553300000      3.5339700000
O               1.7806300000      1.4191000000      4.5284500000
C              -3.2304700000      0.1397300000      7.1167900000
C               3.2624900000     -0.0106800000      9.7830300000
C               4.7793300000      1.5258000000     12.1440900000
C               6.8168200000     -0.2945500000     18.6219000000
C              12.0061200000      0.0792700000     18.1214000000
C              11.2041000000     -1.0529100000     18.4617400000
N              10.6216800000     -2.0181300000     18.7659100000
O               9.7747900000      2.3978600000     14.4562100000
F              14.5152900000      4.9288300000     14.3299200000
F              15.7559000000      3.7756400000     16.4340700000
C              13.2483400000      0.0814400000     18.8250500000
N              14.2379800000      0.0367600000     19.4432700000
C              -2.6494300000     -0.1473700000      0.7237100000
N              -3.1452400000     -0.1570300000     -0.3335400000
H              14.4412300000      1.9901600000     17.7284500000
H              12.0670000000      4.0871800000     13.8550300000
H               9.2156200000      0.1793900000     17.9082100000
H               7.3531500000     -1.2370400000     18.7553300000
H               5.8193900000     -0.4216700000     19.0420100000
H               7.3241000000      0.4713900000     19.2121500000
H               5.1763900000      2.3455900000     12.7414400000
H               4.0605100000      1.9469000000     11.4485600000
H               5.5919400000      1.0489800000     11.5975100000
H               3.0407400000     -0.7657200000      9.0302300000
H               3.9971800000     -0.4321200000     10.4616200000
H               3.6677500000      0.8758300000      9.2972000000
H              -3.4831300000     -0.8120200000      6.6441500000
H              -3.5900200000      0.9443300000      6.4718300000
H              -3.7842200000      0.2000600000      8.0531900000
H              -2.1579100000      0.1895300000      4.8215600000
H               3.1159200000      2.4543100000      2.1644000000
H              -0.8904700000      1.1027400000     -0.5118200000

  eps=3.36
  epsinf=3.36
  RSolv=7.28
 

