%mem=1000MW
%nprocshared=40
#p wB97XD/6-31g** nosymm pop=esp opt td=(nstates=2,root=1) scf=(MaxCycle=20000) iop(3/107=0016000000,3/108=0016000000) SCRF=(PCM,Solvent=Generic,Read)

 Y6 opt-TDdft

0 1
C          0.02843        0.51018        0.08885
C          0.12337        0.27605        1.46633
C          1.33031        0.54865        2.13711
C          2.46023        1.02879        1.48034
C          2.35714        1.25363        0.11364
C          1.15160        1.00298       -0.56614
C         -0.85316       -0.26242        2.44430
C         -0.26289       -0.09506        3.78253
C          1.17080        0.27135        3.58794
C         -0.97960       -0.07201        4.95767
C         -0.63263        0.06371        6.33728
S          1.00011       -0.07709        7.01348
C          0.36586        0.02764        8.62050
C         -1.02990        0.20878        8.62101
C         -1.61579        0.23155        7.34337
S         -1.72183        0.37510       10.24369
C         -0.11881        0.20208       10.91328
C          0.88466        0.03522        9.93487
N          2.11206       -0.11858       10.54297
C          1.90332       -0.01913       11.91933
C          0.49713        0.13582       12.16716
C          2.81238       -0.01368       13.00363
C          2.31856       -0.14653       14.35306
C          0.90280       -0.10045       14.61213
C         -0.01101        0.11240       13.51363
N          4.20259        0.07178       13.03572
C          4.59028       -0.07642       14.35226
C          3.43740       -0.21805       15.17638
C          5.78253       -0.08776       15.08073
C          5.54189       -0.24879       16.46561
S          3.82249       -0.38244       16.87152
C          6.69721       -0.28125       17.27135
C          7.84706       -0.12153       16.48742
S          7.49270        0.01351       14.76510
N         -1.28242        0.20580       13.88340
S         -1.31029        0.02625       15.52823
N          0.31052       -0.17256       15.79741
C          9.25127       -0.18579       16.91840
C         10.03270        0.88839       17.27258
C         11.41511        0.93681       17.69194
C         11.74691        2.34743       17.97058
C         10.61663        3.16336       17.73109
C          9.49893        2.30102       17.28647
C         10.61995        4.54117       17.90631
C         11.80176        5.13679       18.33872
C         12.93272        4.34821       18.58146
C         12.92997        2.96454       18.40626
F         14.06266        4.95195       18.99866
F         11.86812        6.47333       18.52737
C         12.31447       -0.16219       17.81950
C         13.66700       -0.03829       18.23488
N         14.78868        0.00263       18.57108
O          8.36822        2.66373       16.99134
C          6.70872       -0.44606       18.76910
C          5.07036        0.71610       12.03526
C          3.24882       -0.76612        9.86783
C         -3.09533        0.41040        7.09917
O          2.04390        0.36340        4.43830
C         -2.02836       -0.91856        2.13091
C         -2.54277       -1.04005        0.79889
N         -3.01574       -1.16604       -0.25876
F          3.40343        1.72202       -0.57851
F          1.09404        1.25110       -1.88107
C         11.96772       -1.51088       17.54210
N         11.73790       -2.64026       17.32737
C         -2.82857       -1.62680        3.08733
N         -3.50752       -2.24744        3.80300
H         13.84118        2.42587       18.61386
H          9.73879        5.13996       17.71644
H          9.66668       -1.18555       16.92638
H          7.72949       -0.49925       19.14364
H          6.18750       -1.36067       19.06391
H          6.21178        0.39832       19.25434
H          5.64103        1.50559       12.52176
H          4.45519        1.17992       11.27136
H          5.75250       -0.00217       11.58396
H          2.87034       -1.54330        9.20572
H          3.88103       -1.24731       10.60692
H          3.82768       -0.04795        9.28941
H         -3.28961        1.13072        6.30335
H         -3.59192        0.77968        7.99580
H         -3.56527       -0.53770        6.82896
H         -2.05214       -0.14894        4.83162
H          3.38670        1.22567        2.00252
H         -0.86899        0.34641       -0.48694

  eps=3.36
  epsinf=3.36
  RSolv=7.28


