%mem=800MW
%nprocshared=32
%chk=IT-4Cl-HSO-scan-13-S1fromT1.chk
%rwf=IT-4Cl-HSO-scan-13-S1fromT1.rwf
#p wB97XD/6-31g** td(50-50,nstates=5) 6D 10F nosymm GFInput scf=(MaxCycle=20000) iop(3/107=0001100000,3/108=0001100000) SCRF=(PCM,Solvent=Generic,Read)

 HSO

0 1
C              -0.7890000000     -0.7150600000     -1.0335900000
C              -0.4880800000     -0.5117600000      0.3214900000
C               0.8658200000     -0.5057000000      0.6945800000
C               1.8755000000     -0.6810600000     -0.2542900000
C               1.5781000000     -0.8738000000     -1.6129100000
C               0.2233900000     -0.8882000000     -1.9803100000
C              -1.6088900000     -0.4217900000      1.3902500000
C              -2.9797200000     -0.0576600000      0.8028500000
C              -3.8816800000     -1.1432100000      0.9467000000
C              -3.2595400000     -2.2522500000      1.5575600000
C              -1.9060800000     -1.8661800000      1.8753800000
S              -5.4984400000     -0.8105300000      0.3505900000
C              -4.9685300000      0.8112900000     -0.1013200000
C              -3.5936500000      1.0419000000      0.2128400000
C              -5.6068100000      1.8887500000     -0.6840300000
C              -4.7437900000      3.0119300000     -0.8570200000
S              -3.1036300000      2.6493400000     -0.2762900000
C              -1.0583400000     -2.7434000000      2.5044500000
C              -1.5495700000     -4.0420400000      2.8155200000
C              -2.8931800000     -4.4383100000      2.4713200000
C              -3.7465000000     -3.5556800000      1.8571400000
C              -0.9343800000     -5.1426400000      3.4487800000
C              -1.7993900000     -6.2653800000      3.4919300000
C              -3.1534000000     -5.9200100000      2.8553200000
S               0.6352700000     -5.4216200000      4.1804100000
C               0.1378200000     -7.0736900000      4.5509100000
C              -1.1945000000     -7.3519700000      4.1164000000
S              -1.6366100000     -9.0054500000      4.4812700000
C              -0.0478100000     -9.3053700000      5.2212200000
C               0.7705300000     -8.1391400000      5.1616400000
C              -5.2449000000      4.2276200000     -1.3757600000
C              -4.6786900000      5.4639800000     -1.6980800000
C              -3.2264100000      5.7738900000     -1.7950900000
C              -3.1242800000      7.1139600000     -2.4356900000
C              -4.4151100000      7.6210200000     -2.6629700000
C              -5.4134300000      6.6407000000     -2.1422900000
C              -1.9763100000      7.8067800000     -2.7880100000
C              -2.1144500000      9.0572500000     -3.4045800000
C              -3.4013000000      9.5781600000     -3.6479200000
C              -4.5541900000      8.8671300000     -3.2770900000
Cl             -0.6680000000      9.9312300000     -3.8557500000
Cl             -3.6179100000     11.1330600000     -4.4216100000
O              -2.2809600000      5.0772400000     -1.4495000000
C              -6.7843700000      6.8823100000     -2.0350600000
C              -7.4342600000      8.0534500000     -2.5391000000
N              -8.0357600000      8.9744300000     -2.9297300000
C              -1.3100700000      0.5649300000      2.5503700000
C              -0.6147800000      1.7627000000      2.3207000000
C              -0.4280200000      2.6959300000      3.3428300000
C              -0.9328000000      2.4775500000      4.6344800000
C              -1.6357800000      1.2831400000      4.8581900000
C              -1.8243800000      0.3473500000      3.8382600000
C              -3.4257200000     -6.6974800000      1.5400200000
C              -4.7196100000     -6.7675500000      0.9980700000
C              -4.9525900000     -7.3842400000     -0.2329300000
C              -3.9064900000     -7.9555500000     -0.9758700000
C              -2.6139800000     -7.8743800000     -0.4358900000
C              -2.3768400000     -7.2546000000      0.7937200000
C              -4.2548100000     -6.0898300000      3.9349500000
C              -4.9195300000     -7.3159300000      4.1026100000
C              -5.8555500000     -7.4943300000      5.1229600000
C              -6.1634700000     -6.4602900000      6.0223800000
C              -5.4862300000     -5.2419300000      5.8614200000
C              -4.5471300000     -5.0603300000      4.8422300000
C               0.4365900000    -10.4850500000      5.8325000000
C              -0.0628800000    -11.7764100000      6.0128700000
C              -1.3139000000    -12.3331200000      5.4309300000
C              -1.2760800000    -13.8007100000      5.6767100000
C              -0.1175500000    -14.1209400000      6.4046100000
C               0.6225600000    -12.8602300000      6.7072800000
C               0.1398500000    -15.4585100000      6.7119000000
C              -0.7690200000    -16.4426500000      6.2908200000
C              -1.9339500000    -16.1008200000      5.5750200000
C              -2.1894500000    -14.7588500000      5.2647400000
C              -4.1688900000     -8.6577700000     -2.2963000000
C              -7.2075400000     -6.6536700000      7.1079800000
O              -2.2059400000    -11.7322300000      4.8463300000
C               1.7173200000    -12.7704400000      7.5682600000
C               2.3504100000    -13.8977500000      8.1822100000
N               2.9229200000    -14.7651600000      8.7135400000
Cl             -0.4034800000    -18.1088700000      6.6822000000
Cl             -3.0792900000    -17.3132100000      5.0485100000
C              -0.7053300000      3.4847600000      5.7477500000
C               2.6749500000     -1.0346400000     -2.6507300000
C               2.3166100000    -11.5433600000      8.0001500000
N               2.8470000000    -10.5892900000      8.4140800000
C              -7.7115900000      6.0249400000     -1.3595200000
N              -8.5259300000      5.3937600000     -0.8105900000
H              -0.9967800000      7.3912800000     -2.5954200000
H              -5.5143300000      9.3088800000     -3.4871100000
H              -6.3063000000      4.1487100000     -1.5693800000
H              -6.6470600000      1.9117800000     -0.9750200000
H              -0.0444600000     -2.4687100000      2.7572100000
H              -4.7596200000     -3.8318200000      1.6022000000
H               1.7735200000     -8.1190100000      5.5627400000
H               1.4349100000    -10.3273000000      6.2176200000
H               1.0172800000    -15.7737900000      7.2520900000
H              -3.0767300000    -14.4791800000      4.7135100000
H              -2.3825600000     -0.5537100000      4.0594300000
H               2.9098200000     -0.6652100000      0.0746800000
H               1.1448600000     -0.3551700000      1.7299500000
H              -0.0515500000     -1.0389100000     -3.0193900000
H              -1.8187700000     -0.7464100000     -1.3666600000
H              -2.0497900000      1.0768800000      5.8400700000
H               0.1154900000      3.6092600000      3.1230300000
H              -0.2055700000      1.9769100000      1.3422000000
H              -5.5603200000     -6.3466900000      1.5351700000
H              -5.9676700000     -7.4210800000     -0.6157400000
H              -1.3590900000     -7.2057300000      1.1594900000
H              -1.7743200000     -8.2984700000     -0.9772200000
H              -4.0466900000     -4.1034500000      4.7638400000
H              -5.6885800000     -4.4187400000      6.5392400000
H              -6.3497300000     -8.4560200000      5.2165100000
H              -4.7205300000     -8.1399400000      3.4299200000
H              -0.6953900000      4.5074400000      5.3632900000
H              -1.4807700000      3.4187200000      6.5139800000
H               0.2588600000      3.3104400000      6.2385700000
H               2.3819600000     -1.7385400000     -3.4335100000
H               2.8928100000     -0.0768800000     -3.1363000000
H               3.6028800000     -1.3953400000     -2.2017900000
H              -7.1061900000     -7.6309100000      7.5872800000
H              -7.1299600000     -5.8878200000      7.8822000000
H              -8.2178700000     -6.5989300000      6.6877500000
H              -5.0503500000     -8.2510900000     -2.7970600000
H              -3.3193600000     -8.5641800000     -2.9768600000
H              -4.3453300000     -9.7275500000     -2.1375700000

  eps=4.88617
  epsinf=4.88617
  RSolv=8.36
 
