%mem=800MW
%nprocshared=32
%chk=Y6-HSO-scan-110-S1fromT1.chk
%rwf=Y6-HSO-scan-110-S1fromT1.rwf
#p wB97XD/6-31g** td(50-50,nstates=5) 6D 10F nosymm GFInput scf=(MaxCycle=20000) iop(3/107=0016000000,3/108=0016000000) SCRF=(PCM,Solvent=Generic,Read)

 HSO

0 1
C               0.0284400000      0.5091100000      0.0883100000
C               0.1232400000      0.2755200000      1.4658900000
C               1.3301300000      0.5483200000      2.1366400000
C               2.4601000000      1.0281800000      1.4797900000
C               2.3571400000      1.2525200000      0.1129800000
C               1.1516800000      1.0016400000     -0.5667900000
C              -0.8533700000     -0.2625300000      2.4440600000
C              -0.2630900000     -0.0949900000      3.7821700000
C               1.1704600000      0.2715500000      3.5876000000
C              -0.9798200000     -0.0719300000      4.9574100000
C              -0.6329900000      0.0638600000      6.3369400000
S               0.9998600000     -0.0764300000      7.0133300000
C               0.3655400000      0.0280400000      8.6202700000
C              -1.0301800000      0.2086800000      8.6207700000
C              -1.6161000000      0.2312900000      7.3430500000
S              -1.7220300000      0.3747600000     10.2434600000
C              -0.1189200000      0.2023400000     10.9130400000
C               0.8843700000      0.0358200000      9.9348500000
N               2.1118700000     -0.1177300000     10.5429800000
C               1.9030400000     -0.0185500000     11.9192700000
C               0.4972400000      0.1361000000     12.1671800000
C               2.8124200000     -0.0134300000     13.0038800000
C               2.3187100000     -0.1468200000     14.3529800000
C               0.9030000000     -0.1012000000     14.6121000000
C              -0.0108600000      0.1120400000     13.5136300000
N               4.2023500000      0.0729100000     13.0356100000
C               4.5905000000     -0.0752600000     14.3523000000
C               3.4378000000     -0.2176300000     15.1763900000
C               5.7826500000     -0.0865000000     15.0805100000
C               5.5422300000     -0.2483500000     16.4656800000
S               3.8227200000     -0.3826000000     16.8713300000
C               6.6971200000     -0.2811400000     17.2710200000
C               7.8480800000     -0.1208900000     16.4870400000
S               7.4928200000      0.0153000000     14.7646100000
N              -1.2823100000      0.2050500000     13.8834900000
S              -1.3101500000      0.0246700000     15.5282100000
N               0.3107100000     -0.1739600000     15.7973600000
C               9.2507900000     -0.1858300000     16.9184000000
C              10.0333600000      0.8887600000     17.2731800000
C              11.4149600000      0.9365000000     17.6921700000
C              11.7478900000      2.3479300000     17.9715400000
C              10.6176900000      3.1633900000     17.7325000000
C               9.4997700000      2.3002900000     17.2878800000
C              10.6209100000      4.5409900000     17.9079900000
C              11.8031000000      5.1365100000     18.3402900000
C              12.9339700000      4.3481800000     18.5825500000
C              12.9308900000      2.9642300000     18.4069100000
F              14.0641500000      4.9514900000     18.9995900000
F              11.8692400000      6.4729000000     18.5291200000
C              12.3141400000     -0.1619100000     17.8195100000
C              13.6668300000     -0.0382100000     18.2349500000
N              14.7884700000      0.0022300000     18.5710500000
O               8.3688400000      2.6632200000     16.9936600000
C               6.7090100000     -0.4469200000     18.7685900000
C               5.0693700000      0.7181700000     12.0351400000
C               3.2486800000     -0.7650900000      9.8678000000
C              -3.0957400000      0.4095700000      7.0990200000
O               2.0435600000      0.3641200000      4.4379300000
C              -2.0287700000     -0.9184300000      2.1306900000
C              -2.5432600000     -1.0398500000      0.7987000000
N              -3.0163300000     -1.1657400000     -0.2589200000
F               3.4035400000      1.7206300000     -0.5792500000
F               1.0942100000      1.2492400000     -1.8818600000
C              11.9670600000     -1.5106500000     17.5417600000
N              11.7370200000     -2.6398500000     17.3268400000
C              -2.8290800000     -1.6265600000      3.0870800000
N              -3.5081500000     -2.2471800000      3.8026800000
H              13.8421100000      2.4254200000     18.6141000000
H               9.7397800000      5.1399400000     17.7185300000
H               9.6657200000     -1.1858200000     16.9261400000
H               7.7298400000     -0.5003000000     19.1428800000
H               6.1877500000     -1.3616900000     19.0628100000
H               6.2120400000      0.3971700000     19.2543000000
H               5.6390500000      1.5084500000     12.5215200000
H               4.4536200000      1.1810800000     11.2711500000
H               5.7523800000      0.0006700000     11.5839200000
H               2.8703500000     -1.5425800000      9.2059700000
H               3.8812500000     -1.2458500000     10.6068800000
H               3.8272100000     -0.0469100000      9.2890300000
H              -3.2904400000      1.1294600000      6.3029100000
H              -3.5922700000      0.7790900000      7.9955900000
H              -3.5654300000     -0.5387900000      6.8293200000
H              -2.0523500000     -0.1488500000      4.8313100000
H               3.3865300000      1.2252300000      2.0019800000
H              -0.8689400000      0.3451300000     -0.4875000000

  eps=3.36
  epsinf=3.36
  RSolv=7.28
 
