%mem=800MW
%nprocshared=64
%chk=IEICO-4Cl-HSO-w-00001-T1paraS1.chk
%rwf=IEICO-4Cl-HSO-w-00001-T1paraS1.rwf
#p wB97XD/6-31g** td(50-50,nstates=5) 6D 10F nosymm GFInput scf=(MaxCycle=20000) iop(3/107=0000100000,3/108=0000100000) SCRF=(PCM,Solvent=Generic,Read)

IEICO-4Cl

0  1
C              12.4204700000     -0.6597700000      9.9560100000
C              12.7675400000      0.1765000000      8.8931900000
C              14.0632000000      0.0895800000      8.3572200000
C              15.0108400000     -0.8050500000      8.8298000000
C              14.6610600000     -1.6486100000      9.8929000000
C              13.3711500000     -1.5665600000     10.4525200000
C              14.2090400000      1.0927500000      7.2667800000
C              12.9119000000      1.8076400000      7.1696400000
C              12.0018700000      1.2179300000      8.1418900000
C              12.6240000000      2.8858000000      6.3269700000
C              13.3367400000      3.6024900000      5.3383800000
C              12.7257400000      4.6819600000      4.6529000000
C              13.5386000000      5.2918600000      3.7045000000
C              14.8435400000      4.7116900000      3.6151000000
S              14.9846700000      3.3692400000      4.7579000000
C              15.9231700000      5.0855000000      2.7909100000
C              17.2141800000      4.4841900000      2.7608600000
C              18.0707200000      5.0852900000      1.8560900000
C              17.4839900000      6.1567900000      1.1546300000
S              15.8318700000      6.4328600000      1.6213000000
C              18.4013200000      6.7482100000      0.2510100000
C              19.6346500000      6.0132100000      0.3507600000
C              19.5126100000      4.8575500000      1.3792200000
C              20.7351400000      6.3901300000     -0.3837900000
C              20.6111700000      7.5088800000     -1.2497100000
C              19.3693400000      8.2270800000     -1.3694700000
C              18.2739200000      7.8600900000     -0.6227600000
C              19.5019700000      9.4094800000     -2.3646900000
C              20.9850300000      9.2683100000     -2.7376900000
C              21.5508000000      8.1490800000     -2.0951700000
S              23.2200900000      7.9101500000     -2.5234300000
C              23.1666400000      9.3453600000     -3.5869600000
C              21.8699200000      9.9363800000     -3.5632800000
C              18.6784900000      9.2221000000     -3.6682400000
C              18.5405500000     10.2932900000     -4.5698200000
C              17.8872700000     10.1305000000     -5.7908200000
C              17.3427600000      8.8902400000     -6.1699900000
C              17.4848400000      7.8246900000     -5.2711000000
C              18.1428300000      7.9841200000     -4.0457000000
C              16.6198400000      8.7267500000     -7.4955700000
C              19.1717100000     10.7242200000     -1.6124900000
C              17.8628400000     11.2296900000     -1.5827200000
C              17.5478300000     12.3744200000     -0.8452900000
C              18.5238700000     13.0583000000     -0.1039600000
C              19.8302100000     12.5430000000     -0.1273600000
C              20.1480600000     11.3985000000     -0.8621700000
C              24.2761300000      9.7962400000     -4.3264600000
S              24.1624600000     11.2198900000     -5.3708100000
C              25.8539900000     11.0885600000     -5.8467500000
C              26.4516200000      9.9634300000     -5.2252800000
C              25.5978600000      9.2495300000     -4.3924200000
C              19.5678400000      3.4459300000      0.7334800000
C              19.3595900000      3.2454000000     -0.6375700000
C              19.3159600000      1.9569100000     -1.1816300000
C              19.4720500000      0.8183000000     -0.3787300000
C              19.6737300000      1.0225500000      0.9975800000
C              19.7185000000      2.3056700000      1.5429100000
C              20.5760500000      5.0702400000      2.4865600000
C              20.3202700000      5.8936500000      3.5940700000
C              21.3048100000      6.1364800000      4.5549500000
C              22.5875900000      5.5757500000      4.4463400000
C              22.8446200000      4.7650500000      3.3296600000
C              21.8614100000      4.5184900000      2.3677000000
C              26.6124000000     11.9454200000     -6.6760500000
C              26.3302200000     13.0922100000     -7.4265300000
C              24.9837300000     13.6463100000     -7.7171600000
C              25.1777400000     14.7199900000     -8.7323500000
C              26.5488400000     14.8497900000     -9.0108900000
C              27.3057400000     13.8833200000     -8.1594700000
C              26.9609000000     15.7965600000     -9.9500700000
C              25.9947700000     16.5918100000    -10.5883900000
C              24.6251400000     16.4518600000    -10.2920800000
C              24.2125400000     15.5019900000     -9.3472800000
O              25.8766000000      8.1514600000     -3.6708500000
C              27.2036500000      7.5932600000     -3.7266300000
O              23.9057700000     13.2984400000     -7.2491500000
C              28.7004000000     13.8391000000     -8.0614200000
C              29.4275000000     13.0546500000     -7.1099800000
N              30.0929100000     12.4630000000     -6.3541500000
C              18.1784200000     14.2918600000      0.7123500000
C              19.4414100000     -0.5820500000     -0.9658100000
C              23.6600100000      5.8575700000      5.4846500000
O              13.2353200000      6.3247400000      2.9003800000
C              11.9236300000      6.9151300000      2.9793700000
C              10.6489200000      1.5007900000      8.3568400000
C               9.8469800000      0.8793100000      9.3660500000
N               9.1245800000      0.4261200000     10.1637900000
O              15.2224800000      1.2749600000      6.6016600000
C              29.5878000000     14.6163800000     -8.8706500000
N              30.3761300000     15.2075100000     -9.4974100000
C               9.8659700000      2.4226000000      7.5912900000
N               9.1530000000      3.1455300000      7.0139600000
H              15.9974800000     -0.8519500000      8.3895300000
H              11.4490400000     -0.6374700000     10.4210500000
H              11.7109700000      4.9808800000      4.8664800000
H              11.9167300000      7.7040400000      2.2320700000
H              11.7529300000      7.3428800000      3.9691700000
H              11.1542500000      6.1777000000      2.7431600000
H              17.4777600000      3.6518000000      3.3948600000
H              19.2226900000      4.0898800000     -1.3004300000
H              19.1536700000      1.8458300000     -2.2491100000
H              19.7948400000      0.1692500000      1.6576500000
H              19.8758000000      2.4137300000      2.6089300000
H              19.3477000000      6.3526800000      3.7208400000
H              21.0630300000      6.7710500000      5.4018800000
H              22.1037000000      3.8774900000      1.5290300000
H              23.8226000000      4.3106200000      3.2054200000
H              21.1691300000     11.0379200000     -0.8448600000
H              20.6166100000     13.0405500000      0.4316600000
H              17.0770400000     10.7403100000     -2.1447300000
H              16.5251500000     12.7385000000     -0.8561900000
H              18.9420500000     11.2679600000     -4.3209700000
H              17.8034300000     10.9825400000     -6.4582500000
H              18.2330400000      7.1259800000     -3.3926500000
H              17.0801100000      6.8491500000     -5.5217000000
H              17.3395500000      8.3992000000     -0.6898500000
H              21.6746000000      5.8613300000     -0.3056700000
H              21.6280300000     10.8190600000     -4.1345300000
H              18.0094000000     14.0295800000      1.7628300000
H              17.2708600000     14.7747800000      0.3439500000
H              18.9861500000     15.0275500000      0.6866600000
H              15.6534700000      9.2423100000     -7.4799800000
H              16.4313200000      7.6758200000     -7.7232900000
H              17.2007300000      9.1516900000     -8.3191000000
H              27.4885100000      9.7144400000     -5.3922400000
H              27.9955400000     15.9427500000    -10.2126800000
H              23.1648400000     15.3816500000     -9.1077500000
H              27.1831100000      6.7313200000     -3.0650800000
H              27.9406900000      8.3148600000     -3.3691700000
H              27.4429100000      7.2737600000     -4.7427800000
H              18.9946300000     -0.5902500000     -1.9620400000
H              18.8665800000     -1.2640300000     -0.3335000000
H              20.4533000000     -0.9932300000     -1.0528300000
H              23.2318300000      5.9464100000      6.4861000000
H              24.1747800000      6.7999400000      5.2654900000
H              24.4146200000      5.0685500000      5.5075600000
H              11.6326300000      3.2999200000      6.4415700000
H              27.6380800000     11.6073600000     -6.7323900000
Cl             26.5548800000     17.7616300000    -11.7653600000
Cl             23.4078200000     17.4357400000    -11.0758700000
Cl             15.8546500000     -2.7794200000     10.4932900000
Cl             12.8967100000     -2.5892500000     11.7926800000
                                                  
  eps=4.97393                                      
  epsinf=4.97393                                   
  RSolv=8.87                                       
                                                   
