%mem=800MW
%nprocshared=64
#p wB97XD/6-31g** opt td=(triplet,nstates=2,root=1) pop=esp scf=(MaxCycle=20000) nosymm iop(3/107=0003000000,3/108=0003000000) SCRF=(PCM,Solvent=Generic,Read)

IT-2F

0  1
C         -4.99778       15.44791       -0.71295
C         -4.77786       14.10304       -0.40245
C         -4.40282       13.74718        0.90828
C         -4.25439       14.69142        1.92071
C         -4.47395       16.03875        1.62149
C         -4.83384       16.38009        0.31582
C         -4.19717       12.27938        0.97767
C         -4.41440       11.75354       -0.40172
C         -4.87621       12.86193       -1.22630
C         -4.10738       10.47433       -0.86538
C         -3.70187        9.26429       -0.25581
S         -3.53358        8.89164        1.47460
C         -3.10942        7.23177        1.11280
C         -3.08305        7.01074       -0.29814
C         -3.41093        8.11957       -1.05393
C         -2.77589        6.09645        1.84538
C         -2.49417        4.99436        0.99946
S         -2.63755        5.35438       -0.71198
C         -2.16814        3.84126        1.74458
C         -2.28371        4.18345        3.14090
C         -2.66440        5.67841        3.31835
C         -1.78358        2.53494        1.33242
C         -1.53342        1.59846        2.30413
C         -1.67175        1.93342        3.70060
C         -2.04523        3.24355        4.11268
C         -1.06598        0.12882        2.12626
C         -1.02201       -0.30971        3.59614
C         -1.38319        0.76874        4.44351
S         -1.40106        0.35639        6.14959
C         -0.92892       -1.29211        5.72911
C         -0.77068       -1.46974        4.32096
S         -0.29907       -3.11384        3.94765
C         -0.33562       -3.55415        5.66986
C         -0.69201       -2.43055        6.47450
C          0.33377        0.16812        1.45832
C          0.46252        0.25262        0.06231
C          1.71483        0.39110       -0.53926
C          2.89104        0.45359        0.22530
C          2.75780        0.37456        1.61983
C          1.50604        0.23871        2.22497
C          4.25538        0.57744       -0.42921
C         -2.10337       -0.75861        1.38960
C         -1.71554       -1.93492        0.72894
C         -2.66213       -2.78112        0.14710
C         -4.03495       -2.49399        0.20677
C         -4.41978       -1.32276        0.87792
C         -3.47583       -0.47343        1.45976
C         -0.09537       -4.81129        6.27307
C          0.25226       -6.07906        5.80319
C          0.57170       -6.43722        4.39129
C          0.95396       -7.86813        4.38687
C          0.86457       -8.37668        5.69711
C          0.41201       -7.28240        6.61061
C          1.17489       -9.72014        5.93050
C          1.56694      -10.49057        4.83185
C          1.66158       -9.99488        3.52964
C          1.34578       -8.65268        3.30546
C         -4.05180        5.87897        3.98410
C         -4.38370        7.08863        4.61683
C         -5.65483        7.29540        5.15421
C         -6.65162        6.30843        5.07733
C         -6.32215        5.10872        4.42996
C         -5.05003        4.89850        3.88974
C         -1.49595        6.37421        4.06458
C         -1.43626        6.37403        5.46796
C         -0.34423        6.92217        6.14323
C          0.73617        7.48999        5.44877
C          0.67968        7.47511        4.04697
C         -0.41071        6.92526        3.36801
O          0.53880       -5.70259        3.41106
C          0.17864       -7.44883        7.97834
C         -0.32169       -6.43998        8.86230
N         -0.73228       -5.68163        9.64965
F          1.86985      -11.78865        5.04819
C         -5.05812       -3.40726       -0.44430
C         -8.02540        6.54122        5.68044
C          1.90273        8.12358        6.18530
C         -5.40616       12.80340       -2.51643
C         -5.67989       11.59168       -3.22911
N         -5.95108       10.65090       -3.86496
O         -3.88820       11.64342        1.97800
H         -4.36819       16.81205        2.37096
C          0.39972       -8.67166        8.68877
N          0.55679       -9.62433        9.34492
C         -5.80303       13.95098       -3.27400
N         -6.14035       14.83678       -3.95526
H         -3.97264       14.38693        2.92068
H         -5.27325       15.80218       -1.69324
H         -4.16751       10.35438       -1.93902
H         -3.45989        8.14375       -2.13305
H         -2.13904        3.47925        5.16297
H         -1.69316        2.29855        0.28193
H         -0.77338       -2.49735        7.54968
H         -0.22046       -4.73902        7.34400
H          1.12951      -10.19148        6.89840
H          1.40503       -8.22832        2.31133
H         -4.84787        3.95708        3.39480
H         -0.33951        6.90687        7.22864
H         -2.24760        5.95290        6.04830
H          1.49595        7.89748        3.46970
H         -0.40037        6.92821        2.28533
H         -7.06428        4.32159        4.34254
H         -5.86859        8.24189        5.64044
H         -3.64647        7.87563        4.70701
H         -0.41508        0.20448       -0.57023
H          1.77177        0.45159       -1.62155
H          1.45546        0.19472        3.30546
H          3.64043        0.42158        2.24985
H         -3.82466        0.41307        1.97454
H         -5.47172       -1.06680        0.95563
H         -2.31953       -3.68041       -0.35459
H         -0.66878       -2.20031        0.65894
H         -8.48068        7.45240        5.28081
H         -8.70292        5.71044        5.47516
H         -7.96052        6.66080        6.76680
H          2.83130        8.03813        5.61611
H          1.71967        9.19036        6.35602
H          2.06061        7.65820        7.16098
H         -4.78394       -4.45889       -0.32946
H         -6.05099       -3.26891       -0.01114
H         -5.13536       -3.20455       -1.51834
H          4.18651        1.04608       -1.41332
H          4.93776        1.17297        0.18206
H          4.71306       -0.40888       -0.56497
H          1.97307      -10.64881        2.72572
F         -5.03555       17.68302        0.02523
                                                   
  eps=4.35875                                      
  epsinf=4.35875                                   
  RSolv=8.17                                       
                                                   

