%mem=800MW
%nprocshared=64
#p wB97XD/6-31g** opt td=(nstates=2,root=1) pop=esp scf=(MaxCycle=20000) nosymm iop(3/107=0003000000,3/108=0003000000) SCRF=(PCM,Solvent=Generic,Read)

IT-2F

0  1
C         -4.99791       15.44786       -0.71266
C         -4.77805       14.10296       -0.40225
C         -4.40298       13.74701        0.90845
C         -4.25443       14.69118        1.92092
C         -4.47393       16.03854        1.62178
C         -4.83386       16.37997        0.31615
C         -4.19743       12.27920        0.97776
C         -4.41470       11.75345       -0.40166
C         -4.87649       12.86190       -1.22616
C         -4.10774       10.47426       -0.86539
C         -3.70220        9.26421       -0.25586
S         -3.53375        8.89158        1.47453
C         -3.10958        7.23172        1.11273
C         -3.08329        7.01070       -0.29821
C         -3.41125        8.11950       -1.05399
C         -2.77596        6.09642        1.84530
C         -2.49424        4.99434        0.99937
S         -2.63775        5.35434       -0.71205
C         -2.16815        3.84125        1.74449
C         -2.28369        4.18345        3.14081
C         -2.66437        5.67840        3.31827
C         -1.78357        2.53495        1.33231
C         -1.53339        1.59847        2.30401
C         -1.67173        1.93341        3.70048
C         -2.04521        3.24354        4.11258
C         -1.06593        0.12884        2.12614
C         -1.02202       -0.30972        3.59602
C         -1.38321        0.76872        4.44338
S         -1.40116        0.35634        6.14944
C         -0.92901       -1.29216        5.72896
C         -0.77072       -1.46978        4.32081
S         -0.29909       -3.11386        3.94751
C         -0.33576       -3.55423        5.66970
C         -0.69215       -2.43063        6.47434
C          0.33386        0.16817        1.45829
C          0.46271        0.25266        0.06230
C          1.71507        0.39113       -0.53920
C          2.89123        0.45362        0.22544
C          2.75789        0.37459        1.61996
C          1.50608        0.23874        2.22501
C          4.25560        0.57745       -0.42898
C         -2.10324       -0.75861        1.38941
C         -1.71532       -1.93491        0.72877
C         -2.66184       -2.78111        0.14683
C         -4.03468       -2.49401        0.20638
C         -4.41959       -1.32280        0.87750
C         -3.47571       -0.47345        1.45944
C         -0.09558       -4.81137        6.27294
C          0.25209       -6.07917        5.80315
C          0.57159       -6.43745        4.39129
C          0.95387       -7.86835        4.38701
C          0.86440       -8.37680        5.69728
C          0.41177       -7.28244        6.61066
C          1.17471       -9.72023        5.93079
C          1.56685      -10.49076        4.83222
C          1.66158       -9.99516        3.52998
C          1.34577       -8.65298        3.30568
C         -4.05171        5.87900        3.98411
C         -4.38342        7.08867        4.61693
C         -5.65447        7.29554        5.15447
C         -6.65137        6.30867        5.07764
C         -6.32208        5.10895        4.43018
C         -5.05004        4.89863        3.88982
C         -1.49588        6.37423        4.06441
C         -1.43644        6.37461        5.46779
C         -0.34442        6.92280        6.14303
C          0.73620        7.49016        5.44851
C          0.67990        7.47480        4.04670
C         -0.41048        6.92488        3.36779
O          0.53880       -5.70289        3.41101
C          0.17835       -7.44877        7.97839
C         -0.32203       -6.43984        8.86225
N         -0.73265       -5.68144        9.64952
F          1.86976      -11.78880        5.04868
C         -5.05777       -3.40728       -0.44482
C         -8.02506        6.54156        5.68091
C          1.90276        8.12384        6.18498
C         -5.40647       12.80340       -2.51629
C         -5.68019       11.59167       -3.22896
N         -5.95136       10.65086       -3.86478
O         -3.88837       11.64316        1.97802
H         -4.36807       16.81179        2.37129
C          0.39943       -8.67153        8.68894
N          0.55652       -9.62417        9.34513
C         -5.80325       13.95099       -3.27391
N         -6.14051       14.83674       -3.95525
H         -3.97267       14.38662        2.92087
H         -5.27338       15.80221       -1.69291
H         -4.16796       10.35435       -1.93904
H         -3.46028        8.14370       -2.13311
H         -2.13899        3.47921        5.16287
H         -1.69315        2.29857        0.28181
H         -0.77357       -2.49747        7.54953
H         -0.22074       -4.73908        7.34386
H          1.12927      -10.19150        6.89873
H          1.40508       -8.22870        2.31152
H         -4.84802        3.95721        3.39481
H         -0.33987        6.90792        7.22843
H         -2.24796        5.95387        6.04817
H          1.49632        7.89684        3.46940
H         -0.40000        6.92744        2.28511
H         -7.06430        4.32191        4.34280
H         -5.86808        8.24202        5.64077
H         -3.64610        7.87559        4.70706
H         -0.41484        0.20453       -0.57034
H          1.77207        0.45162       -1.62148
H          1.45543        0.19473        3.30550
H          3.64046        0.42159        2.25005
H         -3.82460        0.41303        1.97419
H         -5.47154       -1.06686        0.95511
H         -2.31917       -3.68041       -0.35484
H         -0.66855       -2.20028        0.65889
H         -8.48035        7.45273        5.28125
H         -8.70263        5.71079        5.47579
H         -7.96002        6.66124        6.76725
H          2.83145        8.03773        5.61610
H          1.72000        9.19079        6.35496
H          2.06021        7.65903        7.16099
H         -4.78350       -4.45891       -0.33013
H         -6.05065       -3.26908       -0.01161
H         -5.13504       -3.20443       -1.51882
H          4.18680        1.04612       -1.41308
H          4.93796        1.17295        0.18234
H          4.71327       -0.40887       -0.56473
H          1.97313      -10.64916        2.72613
F         -5.03547       17.68294        0.02565
                                                   
  eps=4.35875                                      
  epsinf=4.35875                                   
  RSolv=8.17                                       
                                                   

