%mem=1000MW
%nprocshared=40
#p wB97XD/6-31g** nosymm pop=esp opt td=(nstates=2,root=1) scf=(MaxCycle=20000) iop(3/107=0016000000,3/108=0016000000) SCRF=(PCM,Solvent=Generic,Read)

 Y6 opt-TDdft

0 1
C         -0.05038        0.46943       -0.01217
C          0.03759        0.25354        1.36857
C          1.23132        0.56369        2.04387
C          2.35383        1.06512        1.39187
C          2.25770        1.27210        0.02128
C          1.06592        0.98316       -0.66439
C         -0.93337       -0.29777        2.34991
C         -0.34613       -0.13094        3.68432
C          1.06623        0.29505        3.49715
C         -1.05645       -0.17531        4.87127
C         -0.71723       -0.05477        6.24591
S          0.93049       -0.05578        6.92102
C          0.29829       -0.05503        8.53093
C         -1.10824       -0.01254        8.53996
C         -1.70206       -0.00915        7.26721
S         -1.79554        0.03955       10.17180
C         -0.17715        0.00894       10.82780
C          0.82175       -0.03293        9.84571
N          2.06787       -0.08162       10.44831
C          1.85892       -0.04074       11.82267
C          0.46003       -0.02633       12.08568
C          2.78847       -0.00468       12.91418
C          2.32801       -0.24254       14.24169
C          0.92100       -0.33650       14.51479
C         -0.02537       -0.15516       13.43239
N          4.15985        0.21938       12.93514
C          4.57720        0.06163       14.24799
C          3.47558       -0.22980       15.05981
C          5.78371        0.13375       14.98186
C          5.57582       -0.11526       16.34453
S          3.90100       -0.43673       16.74257
C          6.77486       -0.13442       17.15136
C          7.93005        0.26683       16.31935
S          7.46009        0.40581       14.60661
N         -1.29565       -0.19409       13.82077
S         -1.28400       -0.45071       15.45579
N          0.35159       -0.51395       15.70242
C          9.25430        0.46664       16.64522
C          9.84458        0.71219       17.92541
C         11.21022        0.35228       18.29828
C         11.48350        1.01955       19.54480
C         10.32992        1.79694       19.91434
C          9.33656        1.59478       18.92134
C         10.30016        2.57320       21.09265
C         11.41014        2.54475       21.90449
C         12.54417        1.75921       21.56532
C         12.59572        0.99924       20.41473
F         13.59325        1.77195       22.41090
F         11.44527        3.25957       23.04901
C         12.05300       -0.56184       17.59271
C         13.44565       -0.67187       17.83970
N         14.59958       -0.77620       18.01213
O          8.18479        2.28990       18.94192
C          6.85430       -0.59828       18.43567
C          4.94147        0.98195       11.95016
C          3.25215       -0.60352        9.74965
C         -3.19584        0.02494        7.05139
O          1.93316        0.43595        4.34949
C         -2.11058       -0.95048        2.02198
C         -2.62611       -1.04732        0.68922
N         -3.10475       -1.15574       -0.36843
F          3.30009        1.75876       -0.66740
F          1.01203        1.21315       -1.98449
C         11.56813       -1.46260       16.61007
N         11.19387       -2.22708       15.80410
C         -2.91745       -1.67518        2.95849
N         -3.60665       -2.31001        3.65234
H         13.48785        0.42610       20.20970
H          9.43855        3.16548       21.36936
H          9.95148        0.46203       15.81187
H          7.80063       -0.68872       18.94712
H          5.97109       -0.92779       18.96600
H          7.64189        2.07686       18.17609
H          5.43246        1.81443       12.45281
H          4.27244        1.40088       11.20560
H          5.69043        0.35588       11.46737
H          2.94250       -1.40105        9.07580
H          3.93926       -1.03355       10.47159
H          3.75230        0.17741        9.17830
H         -3.47483        0.63677        6.19372
H         -3.69713        0.44650        7.92282
H         -3.58946       -0.98263        6.89749
H         -2.12310       -0.31008        4.74512
H          3.27021        1.29077        1.92040
H         -0.93667        0.27429       -0.59527

  eps=3.36
  epsinf=3.36
  RSolv=7.28
 
