%mem=1000MW
%nprocshared=40
#p wB97XD/6-31g** nosymm pop=esp opt td=(nstates=2,root=1) scf=(MaxCycle=20000) iop(3/107=0016000000,3/108=0016000000) SCRF=(PCM,Solvent=Generic,Read)

 Y6 opt-TDdft

0 1
C          0.03526        0.62400        0.04894
C          0.10489        0.41689        1.43083
C          1.25469        0.82230        2.13131
C          2.34753        1.41354        1.50737
C          2.26855        1.61505        0.13349
C          1.12270        1.22919       -0.57774
C         -0.84196       -0.21011        2.39468
C         -0.29014       -0.03685        3.72981
C          1.07846        0.52625        3.57734
C         -0.99947       -0.20627        4.92298
C         -0.66317       -0.13917        6.29201
S          0.97375       -0.00126        6.97288
C          0.34074       -0.14400        8.59138
C         -1.07522       -0.24627        8.58470
C         -1.66019       -0.24325        7.32497
S         -1.77393       -0.33453       10.21816
C         -0.16155       -0.22796       10.88576
C          0.85172       -0.12419        9.88919
N          2.09221       -0.06649       10.49657
C          1.87843       -0.09594       11.88173
C          0.45932       -0.24302       12.12777
C          2.76649        0.04199       12.95937
C          2.31683       -0.23595       14.30737
C          0.92079       -0.48048       14.56608
C         -0.02505       -0.42350       13.47267
N          4.12836        0.37265       13.00047
C          4.54107        0.24583       14.31379
C          3.43352       -0.13464       15.12619
C          5.71800        0.41121       15.04354
C          5.52049        0.15903       16.42668
S          3.84626       -0.29949       16.81751
C          6.65311        0.29964       17.21797
C          7.79687        0.66831       16.42451
S          7.36926        0.85973       14.70931
N         -1.28596       -0.60396       13.84316
S         -1.26924       -0.83931       15.48469
N          0.36278       -0.70958       15.74757
C          9.08888        0.77657       16.98284
C         10.33326        1.19316       16.49736
C         11.58250        1.15740       17.24267
C         12.56973        1.99912       16.51004
C         11.98943        2.42190       15.30159
C         10.59705        1.90919       15.21980
C         12.66801        3.19920       14.36990
C         13.97267        3.57114       14.67555
C         14.56393        3.16525       15.88084
C         13.88373        2.37713       16.80715
F         15.82220        3.55226       16.14329
F         14.68225        4.32692       13.82228
C         11.87278        0.40929       18.38431
C         13.10871        0.49015       19.09826
N         14.08715        0.51632       19.73397
O          9.83333        2.07878       14.27760
C          6.68832        0.09534       18.71204
C          4.83979        1.23531       12.04425
C          3.31790       -0.48554        9.79821
C         -3.14376       -0.33404        7.06734
O          1.90918        0.73776        4.45197
C         -1.99078       -0.91425        2.03372
C         -2.50445       -0.97167        0.70069
N         -2.98414       -1.04938       -0.36040
F          3.28660        2.18613       -0.53006
F          1.07987        1.45193       -1.90069
C         11.00684       -0.58328       18.94159
N         10.37581       -1.43064       19.43736
C         -2.75560       -1.72684        2.92855
N         -3.41026       -2.43575        3.58488
H         14.39858        2.10303       17.71429
H         12.20884        3.50966       13.44103
H          9.09235        0.48456       18.02481
H          7.26249       -0.79497       18.97674
H          5.68305       -0.02998       19.11339
H          7.13753        0.95221       19.21923
H          5.24619        2.09740       12.57222
H          4.13898        1.60694       11.30339
H          5.64978        0.69804       11.55267
H          3.07509       -1.28926        9.10401
H          4.02830       -0.87739       10.51968
H          3.76438        0.34263        9.24961
H         -3.40386       -1.27693        6.58229
H         -3.48758        0.48246        6.42814
H         -3.70488       -0.27789        7.99953
H         -2.05329       -0.41157        4.78731
H          3.22981        1.71101        2.05812
H         -0.81385        0.35195       -0.55822

  eps=3.36
  epsinf=3.36
  RSolv=7.28

