%mem=800MW
%nprocshared=32
%chk=Y6-HSO-scan-150-T2fromS1.chk
%rwf=Y6-HSO-scan-150-T2fromS1.rwf
#p wB97XD/6-31g** td(50-50,nstates=5) 6D 10F nosymm GFInput scf=(MaxCycle=20000) iop(3/107=0016000000,3/108=0016000000) SCRF=(PCM,Solvent=Generic,Read)

 HSO

0 1
C               0.2965200000      1.0277100000      0.2432000000
C               0.3347000000      0.6857700000      1.6009300000
C               1.5258800000      0.8640600000      2.3286100000
C               2.6937100000      1.3511500000      1.7478400000
C               2.6470600000      1.6816600000      0.3997700000
C               1.4579000000      1.5276800000     -0.3353900000
C              -0.6914100000      0.1060200000      2.5021600000
C              -0.1405600000      0.1425000000      3.8674500000
C               1.3077100000      0.4823100000      3.7470100000
C              -0.8902500000      0.0783800000      5.0212500000
C              -0.5809400000      0.0974200000      6.4164500000
S               1.0355400000     -0.0813800000      7.1237400000
C               0.3595200000     -0.0980600000      8.7165000000
C              -1.0377200000      0.0674300000      8.6947300000
C              -1.5911200000      0.1806100000      7.4072700000
S              -1.7704700000      0.1069400000     10.3077300000
C              -0.1817000000     -0.0955600000     11.0030900000
C               0.8464900000     -0.1794200000     10.0402700000
N               2.0611600000     -0.3605200000     10.6651600000
C               1.8199900000     -0.3644800000     12.0396000000
C               0.4058800000     -0.2452400000     12.2633200000
C               2.7030600000     -0.4245100000     13.1440600000
C               2.1780700000     -0.6570000000     14.4682300000
C               0.7558800000     -0.6502900000     14.6942800000
C              -0.1342100000     -0.3718900000     13.5913100000
N               4.0905000000     -0.3172400000     13.2193000000
C               4.4468900000     -0.5447200000     14.5333000000
C               3.2765200000     -0.7626400000     15.3147100000
C               5.6195800000     -0.5763500000     15.2924100000
C               5.3463100000     -0.8243800000     16.6583200000
S               3.6202500000     -1.0234300000     17.0066200000
C               6.4793600000     -0.8716000000     17.4941300000
C               7.6451000000     -0.6364100000     16.7541900000
S               7.3345100000     -0.4136800000     15.0322700000
N              -1.4153800000     -0.3216000000     13.9348800000
S              -1.4800100000     -0.6184200000     15.5618700000
N               0.1368500000     -0.8143600000     15.8564500000
C               9.0378200000     -0.6839700000     17.2230000000
C               9.7731800000      0.3926100000     17.6588300000
C              11.1394200000      0.4613600000     18.1252700000
C              11.4205400000      1.8672800000     18.4742400000
C              10.2706200000      2.6585700000     18.2449500000
C               9.1924600000      1.7843100000     17.7317800000
C              10.2266400000      4.0265900000     18.4806700000
C              11.3795500000      4.6377200000     18.9660200000
C              12.5297200000      3.8741400000     19.1980900000
C              12.5747200000      2.5002500000     18.9618100000
F              13.6309400000      4.4936300000     19.6656800000
F              11.4001500000      5.9657900000     19.2150900000
C              12.0648200000     -0.6173100000     18.2389700000
C              13.3907600000     -0.4788700000     18.7288300000
N              14.4923700000     -0.4261700000     19.1245500000
O               8.0564400000      2.1241100000     17.4296100000
C               6.4533400000     -1.1126400000     18.9813000000
C               4.9721000000      0.4027400000     12.2845600000
C               3.2262000000     -0.9291000000      9.9688400000
C              -3.0663500000      0.3628500000      7.1405300000
O               2.1547100000      0.4827900000      4.6284400000
C              -1.8781000000     -0.4749600000      2.0965200000
C              -2.3522200000     -0.4588600000      0.7441100000
N              -2.7964300000     -0.4729500000     -0.3332500000
F               3.7332200000      2.1603400000     -0.2202000000
F               1.4541100000      1.8768700000     -1.6285000000
C              11.7692600000     -1.9594700000     17.8820400000
N              11.5810800000     -3.0824000000     17.6027400000
C              -2.7356200000     -1.2331300000      2.9599000000
N              -3.4618400000     -1.8882200000      3.5937500000
H              13.4986800000      1.9811600000     19.1630800000
H               9.3313900000      4.6060500000     18.2969600000
H               9.4847200000     -1.6694200000     17.1883700000
H               7.4639100000     -1.1865200000     19.3793600000
H               5.9237200000     -2.0392700000     19.2170200000
H               5.9452900000     -0.2917400000     19.4947300000
H               5.5731500000      1.1128600000     12.8493400000
H               4.3667600000      0.9708300000     11.5851300000
H               5.6286900000     -0.2809100000     11.7495600000
H               2.8780200000     -1.6498900000      9.2308600000
H               3.8444700000     -1.4672200000     10.6797500000
H               3.8081200000     -0.1535100000      9.4734100000
H              -3.2499600000      1.1343100000      6.3916100000
H              -3.5882700000      0.6640000000      8.0482700000
H              -3.5189900000     -0.5683900000      6.7932300000
H              -1.9596000000      0.0244400000      4.8612900000
H               3.6072600000      1.4746300000      2.3134000000
H              -0.5840500000      0.9415800000     -0.3738300000

  eps=3.36
  epsinf=3.36
  RSolv=7.28
 
