%mem=800MW
%nprocshared=64
%chk=IT-4F-HSO-w-0001-T1paraS1.chk
%rwf=IT-4F-HSO-w-0001-T1paraS1.rwf
#p wB97XD/6-31g** td(50-50,nstates=5) 6D 10F nosymm GFInput scf=(MaxCycle=20000) iop(3/107=0001000000,3/108=0001000000) SCRF=(PCM,Solvent=Generic,Read)

IT-4F

0  1
C               0.2916100000      0.1725300000     -0.0181200000
C               0.2251300000      0.1156900000      1.3838600000
C               1.4317400000      0.1884600000      2.0950900000
C               2.6563000000      0.2980000000      1.4314500000
C               2.7274000000      0.3477600000      0.0308500000
C               1.5169200000      0.2842700000     -0.6781900000
C              -1.1434300000      0.1032700000      2.1152500000
C              -1.0393700000     -0.3155200000      3.5881400000
C              -1.3549500000      0.7778300000      4.4351400000
C              -1.6626600000      1.9352400000      3.6893400000
C              -1.5866100000      1.5808700000      2.2923500000
S              -1.3038000000      0.3894500000      6.1465300000
C              -0.8609400000     -1.2680200000      5.7296900000
C              -0.7657500000     -1.4671900000      4.3185100000
C              -0.5970300000     -2.3965700000      6.4811700000
C              -0.2822200000     -3.5339700000      5.6787500000
S              -0.3204900000     -3.1193800000      3.9497700000
C              -2.0044000000      3.2548400000      4.0995900000
C              -2.2699300000      4.1857300000      3.1265700000
C              -2.2112600000      3.8267000000      1.7301200000
C              -1.8633900000      2.5088500000      1.3197100000
C              -2.6276700000      5.6864700000      3.3020800000
C              -2.7697100000      6.0943700000      1.8291400000
C              -2.5397800000      4.9785800000      0.9842900000
S              -2.7245700000      5.3307900000     -0.7255900000
C              -3.1127800000      7.0022800000     -0.3118600000
C              -3.0909200000      7.2331400000      1.0975000000
S              -3.4695500000      8.9026800000      1.4620700000
C              -3.6522200000      9.2776300000     -0.2668600000
C              -3.4233400000      8.1178300000     -1.0652500000
C              -0.0232200000     -4.7840900000      6.2885000000
C               0.3039600000     -6.0590400000      5.8223600000
C               0.5882600000     -6.4323100000      4.4099600000
C               0.9949900000     -7.8605100000      4.4187800000
C               0.9450900000     -8.3495000000      5.7362000000
C               0.4904900000     -7.2520600000      6.6418700000
C               1.3737400000     -8.6437300000      3.3331700000
C               1.7155200000     -9.9678100000      3.5863200000
C               1.6698500000    -10.4747100000      4.8942100000
C               1.2877000000     -9.6859100000      5.9780900000
O               0.5185900000     -5.7200500000      3.4160700000
C               0.2688300000     -7.4068800000      8.0121200000
C               0.5209900000     -8.6172500000      8.7338300000
N               0.7050600000     -9.5608700000      9.3959500000
C              -2.2228100000     -0.7840300000      1.4405600000
C              -1.8770800000     -1.9767300000      0.7855600000
C              -2.8572700000     -2.8224000000      0.2616300000
C              -4.2232000000     -2.5183400000      0.3764700000
C              -4.5656400000     -1.3309400000      1.0425000000
C              -3.5877900000     -0.4819500000      1.5665000000
C              -4.0018800000      5.9056700000      3.9916100000
C              -4.3143600000      7.1236200000      4.6141100000
C              -5.5781700000      7.3477400000      5.1677600000
C              -6.5829400000      6.3704200000      5.1160600000
C              -6.2719200000      5.1582900000      4.4773000000
C              -5.0110200000      4.9311400000      3.9234100000
C              -1.4380600000      6.3766800000      4.0189200000
C              -1.3569600000      6.4032300000      5.4210700000
C              -0.2461300000      6.9469700000      6.0690300000
C               0.8330300000      7.4830600000      5.3475200000
C               0.7555300000      7.4403500000      3.9471600000
C              -0.3538000000      6.8950300000      3.2954900000
C              -3.9571500000     10.5151100000     -0.8811700000
C              -4.2352600000     11.8026900000     -0.4194500000
C              -4.5083700000     12.9694500000     -1.2526100000
C              -4.9420600000     14.0737400000     -0.3461800000
C              -4.8495300000     13.6304500000      0.9851400000
C              -4.3898500000     12.2178700000      1.0016100000
C              -5.1634700000     14.4361200000      2.0749500000
C              -5.5936400000     15.7322600000      1.8117400000
C              -5.7004800000     16.1895600000      0.4891700000
C              -5.3782400000     15.3802500000     -0.5991200000
C              -7.9478200000      6.5984400000      5.7412200000
C               2.0198400000      8.1125700000      6.0550900000
C              -4.3527600000     13.1005800000     -2.6339200000
C              -4.6836300000     14.2831600000     -3.3697100000
N              -4.9345700000     15.2044500000     -4.0411600000
O              -4.1937900000     11.5459500000      2.0065100000
C              -5.2828200000     -3.4313100000     -0.2145300000
C               4.0619900000      0.4413500000     -0.6873700000
C              -3.8098100000     12.0985800000     -3.5011300000
N              -3.3654600000     11.3449200000     -4.2743000000
C              -0.2545500000     -6.4000100000      8.8854200000
N              -0.6843400000     -5.6441000000      9.6647100000
F              -5.9149400000     16.5606300000      2.8201100000
F              -6.1267100000     17.4457100000      0.2707300000
H              -5.0801100000     14.0786900000      3.0925300000
H              -5.4877500000     15.7999900000     -1.5859500000
H              -3.9863900000     10.4012200000     -1.9558200000
H              -3.4870700000      8.1406100000     -2.1434800000
H              -2.0517100000      3.5047300000      5.1496800000
H              -1.8187400000      2.2587000000      0.2695600000
H              -0.6296500000     -2.4458200000      7.5599200000
H              -0.1039600000     -4.6979600000      7.3627200000
H               1.2763400000    -10.1456300000      6.9528700000
F               2.0049900000    -11.7598400000      5.1024300000
F               2.0933000000    -10.7773800000      2.5821700000
H               1.4060000000     -8.2481700000      2.3268700000
H              -4.8238000000      3.9829900000      3.4356800000
H              -0.2255700000      6.9536200000      7.1543500000
H              -2.1654900000      6.0069600000      6.0223700000
H               1.5696500000      7.8369400000      3.3489400000
H              -0.3584600000      6.8758800000      2.2129200000
H              -7.0228500000      4.3775100000      4.4087100000
H              -5.7758600000      8.3024100000      5.6443600000
H              -3.5711200000      7.9069900000      4.6830500000
H              -0.6144400000      0.1231400000     -0.6090800000
H               1.5243500000      0.3228200000     -1.7629800000
H               1.4319400000      0.1668500000      3.1775200000
H               3.5671800000      0.3475400000      2.0196200000
H              -3.9036100000      0.4171800000      2.0806400000
H              -5.6103900000     -1.0616800000      1.1614200000
H              -2.5471200000     -3.7341700000     -0.2386600000
H              -0.8371700000     -2.2545600000      0.6742900000
H              -8.1364100000      7.6593500000      5.9171400000
H              -8.7470300000      6.2146800000      5.1016100000
H              -8.0257200000      6.0838300000      6.7053400000
H               2.9336900000      8.0250900000      5.4630200000
H               1.8437100000      9.1796800000      6.2312100000
H               2.2002100000      7.6460600000      7.0263900000
H              -5.0171100000     -4.4839600000     -0.0891800000
H              -6.2563800000     -3.2718000000      0.2537700000
H              -5.3996100000     -3.2490800000     -1.2886800000
H               3.9559300000      0.9021400000     -1.6719600000
H               4.7823600000      1.0300600000     -0.1143000000
H               4.4957900000     -0.5541900000     -0.8341600000
                                                 
  eps=4.73931                                      
  epsinf=4.73931                                   
  RSolv=8.25                                       
 
