%mem=1000MW
%nprocshared=40
#p wB97XD/6-31g** nosymm pop=esp opt td=(triplet,nstates=3,root=2) scf=(MaxCycle=20000) iop(3/107=0016000000,3/108=0016000000) SCRF=(PCM,Solvent=Generic,Read)

 Y6 opt-TDdft

0 1
C         -0.05062        0.46885       -0.01226
C          0.03746        0.25302        1.36848
C          1.23114        0.56345        2.04374
C          2.35353        1.06507        1.39169
C          2.25731        1.27197        0.02109
C          1.06555        0.98277       -0.66453
C         -0.93341       -0.29836        2.34988
C         -0.34618       -0.13131        3.68428
C          1.06610        0.29494        3.49705
C         -1.05647       -0.17566        4.87123
C         -0.71726       -0.05484        6.24586
S          0.93048       -0.05530        6.92094
C          0.29831       -0.05464        8.53087
C         -1.10822       -0.01246        8.53992
C         -1.70208       -0.00928        7.26718
S         -1.79551        0.03952       10.17176
C         -0.17711        0.00939       10.82774
C          0.82179       -0.03231        9.84565
N          2.06792       -0.08073       10.44825
C          1.85897       -0.03989       11.82261
C          0.46008       -0.02574       12.08562
C          2.78850       -0.00372       12.91413
C          2.32806       -0.24172       14.24161
C          0.92107       -0.33588       14.51472
C         -0.02532       -0.15465       13.43232
N          4.15986        0.22045       12.93510
C          4.57723        0.06260       14.24793
C          3.47563       -0.22895       15.05972
C          5.78374        0.13466       14.98183
C          5.57586       -0.11458       16.34448
S          3.90105       -0.43606       16.74247
C          6.77491       -0.13416       17.15123
C          7.93013        0.26719       16.31931
S          7.46013        0.40665       14.60661
N         -1.29560       -0.19383       13.82069
S         -1.28391       -0.45038       15.45571
N          0.35168       -0.51348       15.70233
C          9.25435        0.46689       16.64526
C          9.84461        0.71208       17.92554
C         11.21025        0.35210       18.29829
C         11.48349        1.01892       19.54507
C         10.32989        1.79612       19.91487
C          9.33653        1.59428       18.92179
C         10.30011        2.57199       21.09344
C         11.41009        2.54330       21.90527
C         12.54414        1.75793       21.56583
C         12.59572        0.99836       20.41498
F         13.59322        1.77043       22.41140
F         11.44517        3.25772       23.05005
C         12.05307       -0.56174       17.59237
C         13.44574       -0.67174       17.83928
N         14.59970       -0.77599       18.01152
O          8.18475        2.28942       18.94262
C          6.85437       -0.59849       18.43537
C          4.94146        0.98315       11.95018
C          3.25232       -0.60235        9.74957
C         -3.19587        0.02441        7.05139
O          1.93299        0.43613        4.34938
C         -2.11044       -0.95143        2.02201
C         -2.62585       -1.04864        0.68924
N         -3.10433       -1.15742       -0.36845
F          3.29957        1.75883       -0.66765
F          1.01157        1.21276       -1.98463
C         11.56824       -1.46203       16.60929
N         11.19400       -2.22612       15.80295
C         -2.91712       -1.67627        2.95858
N         -3.60622       -2.31116        3.65247
H         13.48786        0.42532       20.20975
H          9.43847        3.16411       21.37037
H          9.95155        0.46251       15.81194
H          7.80074       -0.68940       18.94666
H          5.97105       -0.92757       18.96579
H          7.64180        2.07675       18.17668
H          5.43225        1.81571       12.45286
H          4.27243        1.40193       11.20554
H          5.69057        0.35718       11.46747
H          2.94286       -1.39996        9.07574
H          3.93958       -1.03218       10.47148
H          3.75224        0.17871        9.17818
H         -3.47503        0.63630        6.19381
H         -3.69726        0.44573        7.92288
H         -3.58922       -0.98324        6.89736
H         -2.12309       -0.31075        4.74511
H          3.26988        1.29093        1.92019
H         -0.93689        0.27354       -0.59530

  eps=3.36
  epsinf=3.36
  RSolv=7.28
 
