%mem=800MW
%nprocshared=32
%chk=Y6-HSO-scan-150-S1fromT2.chk
%rwf=Y6-HSO-scan-150-S1fromT2.rwf
#p wB97XD/6-31g** td(50-50,nstates=5) 6D 10F nosymm GFInput scf=(MaxCycle=20000) iop(3/107=0016000000,3/108=0016000000) SCRF=(PCM,Solvent=Generic,Read)

 HSO

0 1
C              -0.0453800000      0.4239800000     -0.0015300000
C               0.0241000000      0.2718500000      1.3877100000
C               1.2198800000      0.5945000000      2.0560500000
C               2.3542700000      1.0505400000      1.3938300000
C               2.2736400000      1.2005900000      0.0133600000
C               1.0857700000      0.8932500000     -0.6665300000
C              -0.9634600000     -0.2174600000      2.3847500000
C              -0.3834800000     -0.0445100000      3.7032000000
C               1.0403800000      0.3693900000      3.5123300000
C              -1.0899400000     -0.0844200000      4.9091800000
C              -0.7275200000      0.0003100000      6.2735300000
S               0.9221900000     -0.0516700000      6.9333500000
C               0.2992500000     -0.0555600000      8.5603000000
C              -1.1108800000      0.0295700000      8.5757200000
C              -1.7121500000      0.0663900000      7.3159700000
S              -1.7859500000      0.0940500000     10.2159700000
C              -0.1642300000      0.0105700000     10.8605300000
C               0.8299500000     -0.0549300000      9.8632800000
N               2.0781400000     -0.1390600000     10.4573300000
C               1.8798800000     -0.0943900000     11.8351700000
C               0.4797200000     -0.0452200000     12.1093700000
C               2.8169000000     -0.0707900000     12.9153100000
C               2.3642500000     -0.2846500000     14.2514000000
C               0.9573000000     -0.3458300000     14.5366800000
C               0.0044700000     -0.1538200000     13.4617400000
N               4.1962900000      0.1197700000     12.9209900000
C               4.6214100000     -0.0298100000     14.2305700000
C               3.5157800000     -0.2875100000     15.0614700000
C               5.8349600000      0.0344400000     14.9440800000
C               5.6383300000     -0.1797500000     16.3242900000
S               3.9432000000     -0.4694600000     16.7456600000
C               6.8024800000     -0.1566700000     17.1138200000
C               7.9382500000      0.1280400000     16.3133300000
S               7.5189200000      0.2673500000     14.5848400000
N              -1.2627900000     -0.1612100000     13.8607000000
S              -1.2417900000     -0.4031600000     15.4980700000
N               0.3941000000     -0.5007800000     15.7304200000
C               9.3164900000      0.2127000000     16.6435000000
C               9.9018100000      0.7164000000     17.8063200000
C              11.2739900000      0.5484800000     18.2289100000
C              11.5451200000      1.5355300000     19.3049800000
C              10.3637600000      2.2532500000     19.5729400000
C               9.2830300000      1.7863300000     18.6655200000
C              10.2871500000      3.2430000000     20.5461300000
C              11.4399000000      3.5192900000     21.2732300000
C              12.6258100000      2.8143200000     21.0184100000
C              12.6991500000      1.8199900000     20.0443700000
F              13.7190600000      3.1112300000     21.7386400000
F              11.4326500000      4.4652600000     22.2266700000
C              12.1686100000     -0.4280500000     17.7658900000
C              13.5392400000     -0.4999200000     18.1567000000
N              14.6700400000     -0.6004400000     18.4305100000
O               8.1559700000      2.2479100000     18.5911100000
C               6.8257300000     -0.5120600000     18.5754200000
C               4.9836400000      0.8629900000     11.9253900000
C               3.2402600000     -0.7033600000      9.7538800000
C              -3.1974900000      0.1694800000      7.0781200000
O               1.8991100000      0.5162300000      4.3710300000
C              -2.1896500000     -0.8209300000      2.0715600000
C              -2.7393600000     -0.8654700000      0.7545700000
N              -3.2474900000     -0.9229700000     -0.2952400000
F               3.3303500000      1.6460800000     -0.6860600000
F               1.0447900000      1.0578900000     -1.9978500000
C              11.7958000000     -1.4921600000     16.8879800000
N              11.5525700000     -2.3960900000     16.1896600000
C              -2.9969700000     -1.5347100000      3.0095000000
N              -3.6911800000     -2.1616700000      3.7084300000
H              13.6440300000      1.3200000000     19.8985100000
H               9.3696900000      3.7821700000     20.7404500000
H               9.9954200000     -0.1063500000     15.8603200000
H               7.8298400000     -0.7751100000     18.9044800000
H               6.1746600000     -1.3688500000     18.7642400000
H               6.4768400000      0.3227500000     19.1864500000
H               5.4996300000      1.6838400000     12.4218100000
H               4.3161800000      1.2959400000     11.1872200000
H               5.7126000000      0.2187600000     11.4357700000
H               2.9008500000     -1.4961800000      9.0886600000
H               3.9188700000     -1.1484200000     10.4746900000
H               3.7602300000      0.0573100000      9.1731500000
H              -3.4381500000      1.0105000000      6.4232300000
H              -3.7319000000      0.3207500000      8.0153100000
H              -3.5907200000     -0.7397900000      6.6186100000
H              -2.1613400000     -0.1793000000      4.7918900000
H               3.2695900000      1.2848700000      1.9206400000
H              -0.9263500000      0.2079600000     -0.5852000000

  eps=3.36
  epsinf=3.36
  RSolv=7.28
 
