%mem=1000MW
%nprocshared=40
#p wB97XD/6-31g** nosymm pop=esp opt td=(triplet,nstates=3,root=2) scf=(MaxCycle=20000) iop(3/107=0016000000,3/108=0016000000) SCRF=(PCM,Solvent=Generic,Read)

 Y6 opt-TDdft

0 1
C         -0.18864        0.06401       -0.06173
C         -0.08906       -0.06221        1.32803
C          1.12034        0.26441        1.96629
C          2.24485        0.69629        1.27155
C          2.13625        0.81723       -0.10966
C          0.93171        0.50917       -0.75975
C         -1.05947       -0.52443        2.35786
C         -0.45213       -0.30377        3.66400
C          0.96501        0.08690        3.43410
C         -1.14086       -0.29462        4.87835
C         -0.76404       -0.13268        6.23024
S          0.89624       -0.09431        6.86514
C          0.29687       -0.00690        8.49825
C         -1.12083        0.03097        8.52816
C         -1.73708       -0.03485        7.28324
S         -1.77771        0.17300       10.17478
C         -0.14444        0.18126       10.79904
C          0.84440        0.08989        9.77934
N          2.10196        0.08468       10.35329
C          1.92538        0.20484       11.73762
C          0.50830        0.22019       12.02601
C          2.85644        0.34775       12.77844
C          2.42803        0.22096       14.15413
C          1.02342        0.13619       14.46442
C          0.05272        0.20081       13.39268
N          4.24383        0.54716       12.75488
C          4.68722        0.47998       14.06292
C          3.57781        0.26956       14.93228
C          5.89700        0.58269       14.74780
C          5.72798        0.43360       16.15017
S          4.03437        0.17510       16.61775
C          6.89644        0.46639       16.91294
C          8.03137        0.69563       16.07667
S          7.58148        0.78269       14.35187
N         -1.20725        0.17714       13.80758
S         -1.16060        0.07264       15.46150
N          0.48346        0.05826       15.67373
C          9.41199        0.74379       16.36960
C         10.05834        1.19558       17.52641
C         11.43536        0.93836       17.88648
C         11.80896        1.88859       18.96943
C         10.68156        2.66325       19.29814
C          9.54058        2.27844       18.42040
C         10.70178        3.63445       20.29229
C         11.89794        3.82886       20.97591
C         13.03145        3.06721       20.65754
C         13.00704        2.09237       19.66160
F         14.16964        3.28814       21.33525
F         11.98143        4.75113       21.94878
C         12.25061       -0.07726       17.37950
C         13.62609       -0.24471       17.72711
N         14.75482       -0.42587       17.96374
O          8.44394        2.81684       18.39637
C          6.94617        0.15602       18.38531
C          4.99357        1.27191       11.71616
C          3.26195       -0.51790        9.67729
C         -3.22913        0.00113        7.06238
O          1.84597        0.25703        4.26744
C         -2.27464       -1.14728        2.08110
C         -2.82311       -1.27638        0.76666
N         -3.32975       -1.40596       -0.27648
F          3.18126        1.23754       -0.83979
F          0.86471        0.65039       -2.09261
C         11.78891       -1.10026       16.49213
N         11.47824       -1.97764       15.78749
C         -3.08400       -1.80635        3.05985
N         -3.78019       -2.39163        3.79079
H         13.91596        1.54607       19.46404
H          9.82593        4.22076       20.53635
H         10.05854        0.43117       15.55680
H          7.94037       -0.17421       18.68390
H          6.24155       -0.64303       18.62644
H          6.68832        1.03264       18.98194
H          5.48493        2.13428       12.16575
H          4.30269        1.64303       10.96560
H          5.73977        0.63169       11.24775
H          2.93187       -1.38315        9.10297
H          3.97068       -0.86847       10.42084
H          3.74575        0.19579        9.01191
H         -3.51026        0.80596        6.37899
H         -3.75783        0.16837        8.00006
H         -3.59138       -0.93993        6.64437
H         -2.21275       -0.40710        4.78039
H          3.17231        0.93452        1.77470
H         -1.08509       -0.15225       -0.62121

  eps=3.36
  epsinf=3.36
  RSolv=7.28

