%mem=1000MW
%nprocshared=40
#p wB97XD/6-31g** nosymm pop=esp opt td=(nstates=2,root=1) scf=(MaxCycle=20000) iop(3/107=0016000000,3/108=0016000000) SCRF=(PCM,Solvent=Generic,Read)

 Y6 opt-TDdft

0 1
C         -0.16315        0.01836       -0.06633
C         -0.07998       -0.06695        1.32792
C          1.12662        0.27431        1.96662
C          2.25914        0.68298        1.27108
C          2.16498        0.76618       -0.11407
C          0.96618        0.44045       -0.76536
C         -1.06160       -0.49444        2.35895
C         -0.46621       -0.26004        3.66121
C          0.96044        0.12471        3.43395
C         -1.15906       -0.23144        4.87598
C         -0.78030       -0.07144        6.22907
S          0.87811       -0.07767        6.86874
C          0.27688        0.01902        8.50030
C         -1.13335        0.09655        8.53083
C         -1.75174        0.05206        7.27962
S         -1.78418        0.25785       10.17493
C         -0.15212        0.22420       10.79910
C          0.82682        0.10432        9.79186
N          2.08489        0.06488       10.36877
C          1.90810        0.19118       11.74422
C          0.51238        0.24762       12.03856
C          2.86331        0.28081       12.80443
C          2.43684        0.13432       14.15766
C          1.03521        0.08360       14.47047
C          0.06232        0.21300       13.40355
N          4.24145        0.47718       12.77305
C          4.69266        0.39262       14.07997
C          3.60448        0.17319       14.94412
C          5.92095        0.48447       14.76474
C          5.75415        0.32289       16.15623
S          4.06708        0.06014       16.62480
C          6.93664        0.35662       16.91752
C          8.05712        0.59945       16.08132
S          7.59785        0.68933       14.35942
N         -1.19760        0.22205       13.82515
S         -1.14643        0.07069       15.47249
N          0.49366       -0.00787       15.68067
C          9.44428        0.66453       16.37110
C         10.07796        1.16397       17.51083
C         11.45740        0.95899       17.89062
C         11.79051        1.94371       18.95144
C         10.63892        2.69565       19.25279
C          9.51771        2.25660       18.38047
C         10.62137        3.68990       20.22437
C         11.80388        3.93502       20.91415
C         12.96113        3.19695       20.62399
C         12.97507        2.19840       19.65188
F         14.08518        3.46495       21.30728
F         11.85234        4.88233       21.86495
C         12.30863       -0.04681       17.40927
C         13.68783       -0.15695       17.75936
N         14.82279       -0.29066       17.99959
O          8.40342        2.75185       18.33526
C          6.99049        0.04238       18.38766
C          5.00206        1.17879       11.72726
C          3.23902       -0.53494        9.68143
C         -3.24067        0.13136        7.05579
O          1.83169        0.30193        4.27419
C         -2.29634       -1.10168        2.08923
C         -2.85721       -1.21599        0.78127
N         -3.37452       -1.32952       -0.25945
F          3.21876        1.16400       -0.84591
F          0.91248        0.54061       -2.10259
C         11.87959       -1.10650       16.55180
N         11.59161       -2.00923       15.86920
C         -3.10341       -1.75344        3.07140
N         -3.79953       -2.33256        3.80866
H         13.90104        1.67307       19.47782
H          9.72629        4.25548       20.44621
H         10.09303        0.32482       15.57120
H          7.99651       -0.23769       18.69670
H          6.32320       -0.79132       18.61844
H          6.68029        0.90280       18.98377
H          5.51571        2.02965       12.17277
H          4.31657        1.56593       10.98027
H          5.73029        0.51946       11.25733
H          2.89712       -1.38114        9.08672
H          3.94168       -0.91413       10.41660
H          3.73265        0.18726        9.03262
H         -3.49602        0.93552        6.36130
H         -3.76546        0.32630        7.99034
H         -3.63182       -0.80319        6.64808
H         -2.23216       -0.32732        4.77606
H          3.18246        0.93186        1.77678
H         -1.05272       -0.21465       -0.63006

  eps=3.36
  epsinf=3.36
  RSolv=7.28

