%mem=800MW
%nprocshared=64
#p wB97XD/6-31g** opt td=(nstates=2,root=1) pop=esp scf=(MaxCycle=20000) nosymm iop(3/107=0000100000,3/108=0000100000) SCRF=(PCM,Solvent=Generic,Read)

IEICO-4Cl

0  1
C         12.38632       -0.70937        9.92645
C         12.73695        0.13889        8.87362
C         14.03586        0.05674        8.34289
C         14.98236       -0.84120        8.81130
C         14.62905       -1.69528        9.86483
C         13.33586       -1.61989       10.41809
C         14.18468        1.06688        7.26105
C         12.88373        1.78265        7.16365
C         11.97412        1.18589        8.13123
C         12.59776        2.86239        6.32477
C         13.31473        3.58417        5.33854
C         12.70626        4.66250        4.65416
C         13.52639        5.27596        3.70948
C         14.82839        4.69694        3.62667
S         14.96620        3.35420        4.76479
C         15.92243        5.07356        2.80398
C         17.20412        4.48146        2.77943
C         18.06889        5.09613        1.87000
C         17.47941        6.15238        1.18068
S         15.83198        6.42009        1.63891
C         18.41132        6.75903        0.25986
C         19.62975        6.02894        0.36412
C         19.51227        4.87445        1.39409
C         20.73890        6.41026       -0.37621
C         20.61028        7.51741       -1.23456
C         19.38456        8.23289       -1.35628
C         18.28096        7.86273       -0.60257
C         19.51475        9.41817       -2.34802
C         20.99652        9.27720       -2.72680
C         21.56440        8.17256       -2.09849
S         23.22250        7.93000       -2.53371
C         23.16794        9.36046       -3.59664
C         21.88568        9.94999       -3.56868
C         18.68488        9.23655       -3.64821
C         18.54731       10.30980       -4.54737
C         17.88853       10.15197       -5.76623
C         17.33716        8.91485       -6.14540
C         17.47827        7.84718       -5.24878
C         18.14174        8.00171       -4.02571
C         16.60675        8.75686       -7.46759
C         19.18693       10.73066       -1.59029
C         17.87779       11.23493       -1.55188
C         17.56568       12.37798       -0.81050
C         18.54520       13.06159       -0.07361
C         19.85199       12.54781       -0.10582
C         20.16683       11.40510       -0.84473
C         24.28905        9.80614       -4.34527
S         24.17518       11.22216       -5.39255
C         25.86558       11.08537       -5.87326
C         26.46156        9.96437       -5.24942
C         25.60440        9.25546       -4.40961
C         19.57677        3.46213        0.75087
C         19.37392        3.25792       -0.62055
C         19.33859        1.96832       -1.16261
C         19.49847        0.83179       -0.35746
C         19.69509        1.03947        1.01899
C         19.73147        2.32385        1.56229
C         20.57511        5.09391        2.50106
C         20.31476        5.91534        3.60902
C         21.29800        6.16399        4.56975
C         22.58409        5.61082        4.46103
C         22.84565        4.80171        3.34430
C         21.86370        4.54962        2.38241
C         26.62405       11.93982       -6.71019
C         26.34065       13.08179       -7.46410
C         24.98998       13.63594       -7.75392
C         25.18091       14.70254       -8.77537
C         26.55216       14.83131       -9.05695
C         27.31193       13.87095       -8.20470
C         26.96079       15.77494      -10.00159
C         25.99240       16.56615      -10.64115
C         24.62312       16.42666      -10.34203
C         24.21367       15.48083       -9.39182
O         25.88291        8.16008       -3.68384
C         27.20905        7.59928       -3.73803
O         23.91580       13.29034       -7.27776
C         28.70898       13.82542       -8.10987
C         29.43739       13.04902       -7.15383
N         30.10406       12.46260       -6.39465
C         18.20296       14.29338        0.74680
C         19.47796       -0.56965       -0.94251
C         23.65506        5.89869        5.49922
O         13.22544        6.31036        2.90723
C         11.91306        6.90059        2.98141
C         10.61975        1.47368        8.34851
C          9.81709        0.85086        9.35533
N          9.09456        0.39642       10.15264
O         15.19813        1.25674        6.59959
C         29.59420       14.59488       -8.92784
N         30.38035       15.18054       -9.56283
C          9.83995        2.40230        7.58948
N          9.12879        3.13170        7.01740
H         15.97091       -0.88285        8.37478
H         11.41249       -0.69391       10.38675
H         11.69037        4.96066        4.86279
H         11.90987        7.69087        2.23558
H         11.73816        7.32637        3.97123
H         11.14498        6.16360        2.74008
H         17.47215        3.64864        3.41107
H         19.23405        4.10067       -1.28503
H         19.18004        1.85465       -2.23041
H         19.81896        0.18794        1.68089
H         19.88570        2.43451        2.62853
H         19.33926        6.36831        3.73530
H         21.05261        6.79695        5.41689
H         22.10963        3.90974        1.54391
H         23.82618        4.35274        3.22001
H         21.18827       11.04528       -0.83500
H         20.64121       13.04540        0.44926
H         17.08932       10.74604       -2.11062
H         16.54251       12.74089       -0.81465
H         18.95374       11.28241       -4.29832
H         17.80564       11.00560       -6.43180
H         18.23142        7.14202       -3.37459
H         17.06809        6.87387       -5.49932
H         17.34812        8.40466       -0.66938
H         21.67823        5.88163       -0.29468
H         21.63855       10.83227       -4.13845
H         18.03654       14.02868        1.79712
H         17.29472       14.77790        0.38213
H         19.01109       15.02862        0.72076
H         15.63722        9.26616       -7.44166
H         16.42296        7.70650       -7.70186
H         17.17927        9.19151       -8.29188
H         27.49739        9.71148       -5.41653
H         27.99471       15.92128      -10.26693
H         23.16663       15.36066       -9.14933
H         27.18781        6.74191       -3.07059
H         27.94784        8.32182       -3.38627
H         27.44620        7.27235       -4.75226
H         19.03015       -0.58275       -1.93826
H         18.90906       -1.25521       -0.30872
H         20.49286       -0.97325       -1.03021
H         23.22595        5.99013        6.50003
H         24.16815        6.84132        5.27720
H         24.41133        5.11132        5.52556
H         11.60555        3.27503        6.43619
H         27.64959       11.60141       -6.76571
Cl        26.54900       17.73138      -11.82416
Cl        23.40330       17.40544      -11.12836
Cl        15.82145       -2.82993       10.46071
Cl        12.85556       -2.65713       11.74487
                                                  
  eps=4.97393                                      
  epsinf=4.97393                                   
  RSolv=8.87                                       
                                                   
