%mem=800MW
%nprocshared=40
%chk=Y6-HSO-scan-90-T2fromS1.chk
%rwf=Y6-HSO-scan-90-T2fromS1.rwf
#p wB97XD/6-31g** td(50-50,nstates=5) 6D 10F nosymm GFInput scf=(MaxCycle=20000) iop(3/107=0016000000,3/108=0016000000) SCRF=(PCM,Solvent=Generic,Read)

 Y6

0 1
C              -0.0288000000      0.3840400000      0.0526200000
C               0.0735700000      0.1720800000      1.4331600000
C               1.2849600000      0.4522400000      2.0924900000
C               2.4125300000      0.9180900000      1.4214900000
C               2.3022100000      1.1205600000      0.0518800000
C               1.0920600000      0.8624800000     -0.6168400000
C              -0.8987900000     -0.3479700000      2.4251000000
C              -0.3008600000     -0.1596500000      3.7573500000
C               1.1326900000      0.1996600000      3.5484300000
C              -1.0107300000     -0.1150600000      4.9359500000
C              -0.6556800000      0.0463700000      6.3109100000
S               0.9815500000     -0.0821700000      6.9790400000
C               0.3576600000      0.0521600000      8.5878300000
C              -1.0377300000      0.2344900000      8.5940900000
C              -1.6322000000      0.2332300000      7.3200200000
S              -1.7186200000      0.4326600000     10.2179500000
C              -0.1111300000      0.2712200000     10.8801900000
C               0.8852000000      0.0838100000      9.8982700000
N               2.1165000000     -0.0615100000     10.5003100000
C               1.9178500000      0.0650400000     11.8759600000
C               0.5137400000      0.2284300000     12.1307300000
C               2.8348200000      0.0882900000     12.9531600000
C               2.3507400000     -0.0152600000     14.3086600000
C               0.9371600000      0.0417000000     14.5771100000
C               0.0156700000      0.2339800000     13.4811800000
N               4.2257900000      0.1653600000     12.9728000000
C               4.6228100000      0.0388100000     14.2888000000
C               3.4755600000     -0.0782000000     15.1245800000
C               5.8209200000      0.0280600000     15.0074600000
C               5.5903500000     -0.1079400000     16.3967200000
S               3.8731100000     -0.2156900000     16.8191800000
C               6.7525400000     -0.1467900000     17.1923200000
C               7.8976500000     -0.0199600000     16.3954900000
S               7.5294200000      0.0975600000     14.6748000000
N              -1.2527100000      0.3383400000     13.8583800000
S              -1.2686600000      0.1935400000     15.5067200000
N               0.3535300000     -0.0038700000     15.7680100000
C               9.3038600000     -0.1123800000     16.8143800000
C              10.1171800000      0.9442500000     17.1484300000
C              11.5041200000      0.9585600000     17.5549600000
C              11.8778700000      2.3621000000     17.8137000000
C              10.7695400000      3.2074500000     17.5726500000
C               9.6232800000      2.3716700000     17.1494800000
C              10.8150400000      4.5867800000     17.7295500000
C              12.0174900000      5.1532200000     18.1442600000
C              13.1266800000      4.3349800000     18.3891700000
C              13.0816200000      2.9498500000     18.2327800000
F              14.2773300000      4.9103200000     18.7895700000
F              12.1243400000      6.4897000000     18.3140500000
C              12.3737900000     -0.1636200000     17.6871300000
C              13.7328400000     -0.0721800000     18.0894200000
N              14.8580900000     -0.0577000000     18.4157100000
O               8.5002700000      2.7621400000     16.8606600000
C               6.7762100000     -0.2918000000     18.6919200000
C               5.0887800000      0.7885900000     11.9549500000
C               3.2457100000     -0.7262000000      9.8290100000
C              -3.1142400000      0.4035500000      7.0854500000
O               2.0108600000      0.3034200000      4.3921800000
C              -2.0772300000     -1.0060600000      2.1285900000
C              -2.5979300000     -1.1498200000      0.8012100000
N              -3.0758500000     -1.2933900000     -0.2519700000
F               3.3457200000      1.5746200000     -0.6538800000
F               1.0277900000      1.0889600000     -1.9353400000
C              11.9887400000     -1.5051500000     17.4263300000
N              11.7277300000     -2.6301900000     17.2249300000
C              -2.8754300000     -1.6943200000      3.1011500000
N              -3.5532700000     -2.2990900000      3.8313200000
H              13.9779400000      2.3871000000     18.4414700000
H               9.9507000000      5.2093400000     17.5387400000
H               9.6928200000     -1.1226900000     16.8316500000
H               7.8000300000     -0.3492500000     19.0572500000
H               6.2498500000     -1.1978600000     19.0036300000
H               6.2912100000      0.5631200000     19.1706100000
H               5.6658900000      1.5843400000     12.4232900000
H               4.4692400000      1.2407900000     11.1876100000
H               5.7649700000      0.0599400000     11.5114500000
H               2.8592900000     -1.5142600000      9.1846000000
H               3.8820200000     -1.1956300000     10.5721300000
H               3.8228900000     -0.0213700000      9.2327300000
H              -3.3200200000      1.0761900000      6.2520700000
H              -3.5964900000      0.8264200000      7.9663000000
H              -3.5892500000     -0.5580900000      6.8787100000
H              -2.0838800000     -0.1945500000      4.8174900000
H               3.3424300000      1.1208000000      1.9352600000
H              -0.9301800000      0.2135500000     -0.5149500000
                                                   
  eps=3.36                                       
  epsinf=3.36                                    
  RSolv=7.28
 
