%mem=1000MW
%nprocshared=40
#p wB97XD/6-31g** nosymm pop=esp opt td=(nstates=2,root=1) scf=(MaxCycle=20000) iop(3/107=0016000000,3/108=0016000000) SCRF=(PCM,Solvent=Generic,Read)

 Y6 opt-TDdft

0 1
C          0.14081        0.55470        0.05363
C          0.18126        0.39293        1.44310
C          1.30304        0.85573        2.15607
C          2.39161        1.46255        1.53943
C          2.33954        1.62151        0.15882
C          1.22417        1.17522       -0.56556
C         -0.76847       -0.23245        2.40051
C         -0.25385       -0.01861        3.73908
C          1.10706        0.58571        3.60228
C         -0.98178       -0.17927        4.92322
C         -0.66520       -0.09383        6.29806
S          0.96311        0.03996        7.00027
C          0.30942       -0.09890        8.60762
C         -1.09991       -0.19174        8.58978
C         -1.67304       -0.18862        7.31611
S         -1.81237       -0.26443       10.21349
C         -0.20730       -0.16178       10.89574
C          0.80759       -0.07372        9.92395
N          2.04403       -0.02311       10.54647
C          1.81297       -0.04507       11.91919
C          0.41232       -0.17528       12.15932
C          2.71752        0.05400       13.02492
C          2.26179       -0.25572       14.34146
C          0.86601       -0.49195       14.58813
C         -0.07779       -0.38171       13.49431
N          4.06418        0.40381       13.07498
C          4.47438        0.26047       14.39037
C          3.38491       -0.14991       15.18248
C          5.65798        0.43080       15.13344
C          5.45550        0.14458       16.50180
S          3.78968       -0.34339       16.87111
C          6.59010        0.28086       17.30486
C          7.72714        0.68311       16.52628
S          7.30001        0.91387       14.81582
N         -1.34393       -0.55348       13.85906
S         -1.33153       -0.84113       15.48930
N          0.29872       -0.74927       15.76190
C          9.02122        0.78335       17.08666
C         10.25567        1.24826       16.61947
C         11.50797        1.18220       17.34731
C         12.46573        2.10890       16.68936
C         11.87016        2.62070       15.52157
C         10.49643        2.07226       15.39433
C         12.52523        3.49546       14.66176
C         13.81952        3.87683       14.99902
C         14.42509        3.38106       16.16323
C         13.77027        2.49499       17.01660
F         15.67302        3.77686       16.45828
F         14.50480        4.72645       14.21623
C         11.81794        0.33564       18.42186
C         13.03897        0.39935       19.15879
N         14.00924        0.41061       19.80845
O          9.72483        2.28146       14.46881
C          6.62042        0.04018       18.79293
C          4.79112        1.25293       12.11956
C          3.28049       -0.41755        9.85417
C         -3.15345       -0.27320        7.04324
O          1.90822        0.83550        4.49218
C         -1.90321       -0.97318        2.03787
C         -2.41172       -1.04659        0.70595
N         -2.88587       -1.13482       -0.35755
F          3.35420        2.20680       -0.49855
F          1.20716        1.35349       -1.89557
C         10.98997       -0.74478       18.85543
N         10.38553       -1.66539       19.24341
C         -2.64094       -1.80503        2.93464
N         -3.27073       -2.53102        3.59780
H         14.29538        2.15467       17.89513
H         12.05593        3.87360       13.76349
H          9.03570        0.43628       18.11170
H          7.08920        0.87338       19.32120
H          7.17410       -0.86995       19.03490
H          5.61237       -0.07242       19.19110
H          5.21109        2.10603       12.65059
H          4.09794        1.63994       11.37956
H          5.59313        0.70290       11.62898
H          3.05077       -1.21346        9.14723
H          3.98788       -0.81395       10.57576
H          3.72231        0.42266        9.32044
H         -3.41553       -1.22425        6.57452
H         -3.48353        0.53180        6.38258
H         -3.72440       -0.19352        7.96764
H         -2.03103       -0.39741        4.77316
H          3.25087        1.80369        2.10113
H         -0.68274        0.23518       -0.56558

  eps=3.36
  epsinf=3.36
  RSolv=7.28

 
