%mem=1000MW
%nprocshared=40
#p wB97XD/6-31g** nosymm pop=esp opt td=(triplet,nstates=3,root=2) scf=(MaxCycle=20000) iop(3/107=0016000000,3/108=0016000000) SCRF=(PCM,Solvent=Generic,Read)

 Y6 opt-TDdft

0 1
C          0.09478        0.58034        0.05542
C          0.15470        0.39687        1.44101
C          1.28821        0.83844        2.14638
C          2.37420        1.44354        1.52385
C          2.30492        1.62155        0.14616
C          1.17525        1.19921       -0.57008
C         -0.78780       -0.23559        2.40541
C         -0.25434       -0.02863        3.74266
C          1.10349        0.56141        3.59531
C         -0.97395       -0.19166        4.93080
C         -0.65099       -0.10547        6.30170
S          0.97893        0.05373        6.99464
C          0.33494       -0.09098        8.60889
C         -1.08012       -0.20627        8.59131
C         -1.65532       -0.21268        7.32730
S         -1.79078       -0.30126       10.21914
C         -0.18453       -0.18265       10.89897
C          0.83567       -0.06744        9.91057
N          2.07079       -0.00248       10.52819
C          1.84667       -0.04200       11.91146
C          0.42671       -0.20039       12.14543
C          2.72548        0.09095       12.99744
C          2.26715       -0.20700       14.33814
C          0.87059       -0.46098       14.58421
C         -0.06728       -0.39610       13.48462
N          4.08497        0.42917       13.05355
C          4.48890        0.28646       14.36819
C          3.37744       -0.11240       15.16619
C          5.65965        0.44535       15.10992
C          5.45302        0.16496       16.48655
S          3.77837       -0.30623       16.85700
C          6.57940        0.29175       17.28916
C          7.72616        0.68238       16.51243
S          7.31067        0.91211       14.79931
N         -1.33006       -0.58631       13.84359
S         -1.32451       -0.83972       15.48255
N          0.30508       -0.70573       15.75898
C          9.01617        0.77578       17.07765
C         10.25481        1.23120       16.61494
C         11.50172        1.16432       17.36087
C         12.46481        2.09762       16.71428
C         11.88447        2.59277       15.53318
C         10.51109        2.03978       15.39150
C         12.54613        3.46836       14.67959
C         13.82969        3.86603       15.03900
C         14.41859        3.38878       16.21929
C         13.75668        2.50215       17.06634
F         15.65510        3.80389       16.53616
F         14.52007        4.71631       14.26233
C         11.80804        0.31582       18.42451
C         13.04153        0.35416       19.14632
N         14.02048        0.34106       19.78154
O          9.75495        2.24713       14.45108
C          6.60485        0.05444       18.77875
C          4.79887        1.30603       12.11230
C          3.30601       -0.40529        9.83748
C         -3.13597       -0.31674        7.05804
O          1.91978        0.80541        4.47502
C         -1.91554       -0.97386        2.04563
C         -2.41555       -1.06553        0.70942
N         -2.88335       -1.17204       -0.35450
F          3.31692        2.20460       -0.51635
F          1.14124        1.39971       -1.89685
C         10.96525       -0.75115       18.86952
N         10.35161       -1.66047       19.26743
C         -2.66576       -1.79269        2.94719
N         -3.30593       -2.50898        3.60980
H         14.26559        2.17765       17.96029
H         12.08965        3.83583       13.77039
H          9.02284        0.43582       18.10535
H          7.06759        0.89152       19.30621
H          7.16095       -0.85256       19.02534
H          5.59572       -0.06103       19.17357
H          5.19753        2.16392       12.65278
H          4.10118        1.68270       11.37091
H          5.61466        0.77835       11.61990
H          3.07648       -1.20549        9.13476
H          4.01329       -0.79696       10.56212
H          3.75014        0.43107        9.29948
H         -3.38531       -1.26540        6.57860
H         -3.48003        0.49201        6.40918
H         -3.70529       -0.25695        7.98504
H         -2.02388       -0.41146        4.78720
H          3.24401        1.76913        2.07847
H         -0.74192        0.28034       -0.55584

  eps=3.36
  epsinf=3.36
  RSolv=7.28

