%mem=800MW
%nprocshared=64
#p wB97XD/6-31g** opt td=(nstates=2,root=1) pop=esp scf=(MaxCycle=20000) nosymm iop(3/107=0000400000,3/108=0000400000) SCRF=(PCM,Solvent=Generic,Read)

IEICO-4F

0  1
C         12.29034       -0.86232        9.76751
C         12.66422        0.01785        8.74455
C         13.96401       -0.06671        8.21322
C         14.90098       -0.99791        8.64925
C         14.51559       -1.87121        9.66188
C         13.22758       -1.79394       10.21179
C         14.13012        0.97619        7.16802
C         12.83801        1.71118        7.08537
C         11.92152        1.10491        8.04106
C         12.55927        2.79845        6.25506
C         13.28429        3.53258        5.28394
C         12.67646        4.61187        4.60015
C         13.50512        5.24237        3.67477
C         14.81413        4.67751        3.60692
S         14.94667        3.32339        4.73334
C         15.91633        5.07327        2.80430
C         17.20658        4.49967        2.79618
C         18.07600        5.13140        1.90243
C         17.48224        6.18208        1.20889
S         15.82454        6.42436        1.64420
C         18.41779        6.80364        0.30123
C         19.64346        6.08829        0.41846
C         19.52940        4.93302        1.44805
C         20.75530        6.48144       -0.31147
C         20.62259        7.58602       -1.17215
C         19.39111        8.28881       -1.30507
C         18.28422        7.90663       -0.56182
C         19.51870        9.47397       -2.29792
C         21.00448        9.34475       -2.66700
C         21.57677        8.24716       -2.03111
S         23.23741        8.01127       -2.45970
C         23.17791        9.43437       -3.53283
C         21.89262       10.01811       -3.51032
C         18.69934        9.28339       -3.60331
C         18.55348       10.35544       -4.50263
C         17.90444       10.19004       -5.72568
C         17.37201        8.94600       -6.10937
C         17.52132        7.87963       -5.21260
C         18.17488        8.04186       -3.98521
C         16.65491        8.77912       -7.43773
C         19.17471       10.78422       -1.54382
C         17.86049       11.27574       -1.51179
C         17.53385       12.41640       -0.77301
C         18.50331       13.11025       -0.03241
C         19.81524       12.60939       -0.05844
C         20.14460       11.46923       -0.79492
C         24.29661        9.87211       -4.28945
S         24.18836       11.29091       -5.33595
C         25.86237       11.11412       -5.86120
C         26.45522        9.99488       -5.23041
C         25.60597        9.30916       -4.36461
C         19.63274        3.52152        0.80867
C         19.45035        3.31095       -0.56517
C         19.46636        2.02184       -1.10783
C         19.65989        0.89086       -0.30116
C         19.82654        1.10390        1.07776
C         19.81077        2.38885        1.62209
C         20.57315        5.17399        2.56918
C         20.28225        5.98622        3.67618
C         21.24944        6.25509        4.64797
C         22.54894        5.73232        4.55190
C         22.84077        4.93176        3.43636
C         21.87528        4.65947        2.46385
C         26.60710       11.90403       -6.77189
C         26.34169       13.03484       -7.54672
C         25.04738       13.76709       -7.61934
C         25.22344       14.85103       -8.61987
C         26.53506       14.80129       -9.12578
C         27.27400       13.69339       -8.45130
C         26.92011       15.72598      -10.10436
C         25.98156       16.66424      -10.53198
C         24.68126       16.70537      -10.00784
C         24.28514       15.78863       -9.03875
O         25.88653        8.22094       -3.62813
C         27.20630        7.64756       -3.69644
O         24.02083       13.53836       -6.99060
C         28.62692       13.40415       -8.67285
C         29.37735       12.38745       -8.00212
N         30.06665       11.58796       -7.50142
C         18.14571       14.33931        0.78549
C         19.72150       -0.50607       -0.89401
C         23.60277        6.04296        5.60091
O         13.20604        6.28206        2.87797
C         11.88836        6.86078        2.94127
C         10.57878        1.42233        8.28500
C          9.76319        0.76907        9.26195
N          9.03075        0.29132       10.03624
O         15.14857        1.17611        6.51675
C         29.45856       14.11109       -9.59750
N         30.20407       14.63305      -10.32961
C          9.82430        2.42096        7.59196
N          9.13207        3.20863        7.07674
H         15.89375       -1.05282        8.22303
H         11.32000       -0.86306       10.23706
H         11.65492        4.89890        4.79652
H         11.88771        7.65802        2.20282
H         11.69772        7.27580        3.93277
H         11.12893        6.12029        2.68361
H         17.47740        3.66751        3.42758
H         19.28986        4.14926       -1.23066
H         19.32503        1.90314       -2.17753
H         19.97160        0.25696        1.74118
H         19.94663        2.50383        2.69034
H         19.29549        6.41675        3.79298
H         20.98063        6.88041        5.49371
H         22.14508        4.02682        1.62729
H         23.83250        4.50538        3.32153
H         21.16958       11.11976       -0.78055
H         20.59696       13.11530        0.49972
H         17.07942       10.77850       -2.07359
H         16.50713       12.76912       -0.78211
H         18.94568       11.33302       -4.25013
H         17.81449       11.04305       -6.39116
H         18.27166        7.18299       -3.33399
H         17.12566        6.90119       -5.46655
H         17.34592        8.43781       -0.63852
H         21.69934        5.96279       -0.22147
H         21.64166       10.89388       -4.08847
H         17.97582       14.07368        1.83501
H         17.23530       14.81575        0.41556
H         18.94754       15.08152        0.76345
H         15.68999        9.29748       -7.42957
H         16.46475        7.72776       -7.66214
H         17.24136        9.19876       -8.26016
H         27.48147        9.72028       -5.42019
H         27.89973       15.75677      -10.55293
H         23.28290       15.81511       -8.63246
H         27.19060        6.80370       -3.01183
H         27.95764        8.37025       -3.37258
H         27.42211        7.29874       -4.70809
H         19.17312       -0.56795       -1.83657
H         19.30544       -1.24982       -0.20999
H         20.75921       -0.79381       -1.09777
H         23.15942        6.14316        6.59458
H         24.11089        6.98709        5.37379
H         24.36551        5.26267        5.64752
H         11.56372        3.20527        6.35715
H         27.60510       11.50408       -6.87670
F         23.82156       17.63924      -10.45359
F         26.32962       17.55949      -11.47343
F         12.89050       -2.64763       11.19483
F         15.37376       -2.79768       10.12580

 eps=4.99
 epsinf=4.99
 RSolv=7.92
 
