%mem=800MW
%nprocshared=32
%chk=Y6-HSO-scan-120-S1fromT1.chk
%rwf=Y6-HSO-scan-120-S1fromT1.rwf
#p wB97XD/6-31g** td(50-50,nstates=5) 6D 10F nosymm GFInput scf=(MaxCycle=20000) iop(3/107=0016000000,3/108=0016000000) SCRF=(PCM,Solvent=Generic,Read)

 HSO

0 1
C               0.0539000000      0.5971500000      0.1104300000
C               0.1447000000      0.3529200000      1.4864500000
C               1.3489500000      0.6228900000      2.1631000000
C               2.4799700000      1.1102900000      1.5136700000
C               2.3809600000      1.3451600000      0.1483400000
C               1.1781800000      1.0971400000     -0.5371800000
C              -0.8336000000     -0.1955500000      2.4572400000
C              -0.2470100000     -0.0397700000      3.7982700000
C               1.1855900000      0.3335800000      3.6112400000
C              -0.9661500000     -0.0332000000      4.9724300000
C              -0.6228800000      0.0865200000      6.3541200000
S               1.0093300000     -0.0506200000      7.0327900000
C               0.3701900000      0.0263600000      8.6394900000
C              -1.0270100000      0.1959500000      8.6388700000
C              -1.6097000000      0.2326400000      7.3601500000
S              -1.7248300000      0.3290600000     10.2619900000
C              -0.1226000000      0.1558800000     10.9333800000
C               0.8850800000      0.0154000000      9.9556400000
N               2.1113900000     -0.1409000000     10.5652400000
C               1.8973900000     -0.0718900000     11.9425100000
C               0.4895000000      0.0679400000     12.1880600000
C               2.8022900000     -0.0857300000     13.0312500000
C               2.3029500000     -0.2553700000     14.3742800000
C               0.8858900000     -0.2253300000     14.6281300000
C              -0.0244000000      0.0091900000     13.5312100000
N               4.1914300000      0.0107800000     13.0729100000
C               4.5740000000     -0.1657300000     14.3877100000
C               3.4182200000     -0.3381600000     15.2015800000
C               5.7621200000     -0.1818400000     15.1225900000
C               5.5155100000     -0.3807700000     16.5018700000
S               3.7951900000     -0.5415000000     16.8940900000
C               6.6656100000     -0.4218900000     17.3133800000
C               7.8192800000     -0.2262500000     16.5415700000
S               7.4730800000     -0.0494800000     14.8207400000
N              -1.2979900000      0.0855800000     13.8974600000
S              -1.3319000000     -0.1355900000     15.5372400000
N               0.2890500000     -0.3308400000     15.8086100000
C               9.2203500000     -0.2770300000     16.9801100000
C               9.9684300000      0.7996800000     17.3973500000
C              11.3426600000      0.8656500000     17.8374600000
C              11.6361800000      2.2734600000     18.1734600000
C              10.4858700000      3.0673900000     17.9587000000
C               9.3959700000      2.1938400000     17.4679800000
C              10.4505900000      4.4365700000     18.1881000000
C              11.6136000000      5.0457900000     18.6519200000
C              12.7642400000      4.2792600000     18.8696900000
C              12.8000600000      2.9037500000     18.6395000000
F              13.8751300000      4.8963600000     19.3170300000
F              11.6428300000      6.3749000000     18.8936800000
C              12.2657900000     -0.2151300000     17.9410000000
C              13.6057700000     -0.0761500000     18.3914400000
N              14.7183800000     -0.0229200000     18.7546900000
O               8.2580200000      2.5377300000     17.1778400000
C               6.6693500000     -0.6247000000     18.8063200000
C               5.0615000000      0.6799700000     12.0912000000
C               3.2583000000     -0.7577200000      9.8793300000
C              -3.0895700000      0.4048300000      7.1130700000
O               2.0557600000      0.4224500000      4.4650300000
C              -2.0073400000     -0.8500000000      2.1343700000
C              -2.5192300000     -0.9573400000      0.8002100000
N              -2.9906700000     -1.0721600000     -0.2594100000
F               3.4287500000      1.8204600000     -0.5368800000
F               1.1243400000      1.3548600000     -1.8504700000
C              11.9547100000     -1.5607400000     17.6104500000
N              11.7542000000     -2.6864600000     17.3521000000
C              -2.8083500000     -1.5705900000      3.0807700000
N              -3.4877900000     -2.2013100000      3.7871400000
H              13.7250200000      2.3821100000     18.8291100000
H               9.5545700000      5.0184200000     18.0161000000
H               9.6643300000     -1.2634800000     16.9366400000
H               7.6875800000     -0.7033600000     19.1832100000
H               6.1325200000     -1.5378200000     19.0762800000
H               6.1838900000      0.2153900000     19.3102300000
H               5.6336800000      1.4540800000     12.6000400000
H               4.4493500000      1.1674400000     11.3396500000
H               5.7428000000     -0.0269200000     11.6210600000
H               2.8912200000     -1.5194500000      9.1933800000
H               3.8907500000     -1.2540600000     10.6080500000
H               3.8331200000     -0.0176100000      9.3249700000
H              -3.2851400000      1.1561700000      6.3465000000
H              -3.5975500000      0.7294800000      8.0203800000
H              -3.5471300000     -0.5354100000      6.7983200000
H              -2.0381500000     -0.1128500000      4.8432400000
H               3.4043800000      1.3050100000      2.0403000000
H              -0.8411100000      0.4357100000     -0.4697600000

  eps=3.36
  epsinf=3.36
  RSolv=7.28
 
