%mem=800MW
%nprocshared=32
%chk=Y6-HSO-scan-120-T1fromS1.chk
%rwf=Y6-HSO-scan-120-T1fromS1.rwf
#p wB97XD/6-31g** td(50-50,nstates=5) 6D 10F nosymm GFInput scf=(MaxCycle=20000) iop(3/107=0016000000,3/108=0016000000) SCRF=(PCM,Solvent=Generic,Read)

 HSO

0 1
C               0.0717200000      0.6203500000      0.1190500000
C               0.1600400000      0.3702600000      1.4942000000
C               1.3619200000      0.6408700000      2.1748700000
C               2.4929500000      1.1346600000      1.5302700000
C               2.3963700000      1.3754600000      0.1658100000
C               1.1959100000      1.1268100000     -0.5236200000
C              -0.8188000000     -0.1855500000      2.4602100000
C              -0.2357200000     -0.0340300000      3.8033500000
C               1.1963000000      0.3443300000      3.6212500000
C              -0.9576200000     -0.0342200000      4.9757100000
C              -0.6176700000      0.0815300000      6.3587300000
S               1.0132400000     -0.0539700000      7.0403900000
C               0.3704600000      0.0174500000      8.6459500000
C              -1.0272000000      0.1840000000      8.6427800000
C              -1.6071700000      0.2225300000      7.3629400000
S              -1.7288200000      0.3122200000     10.2647100000
C              -0.1276400000      0.1411700000     10.9390500000
C               0.8825900000      0.0046800000      9.9629500000
N               2.1079000000     -0.1501400000     10.5747300000
C               1.8910300000     -0.0837700000     11.9518000000
C               0.4818700000      0.0526100000     12.1945400000
C               2.7932900000     -0.0966300000     13.0422000000
C               2.2911800000     -0.2678800000     14.3844000000
C               0.8734500000     -0.2411800000     14.6351800000
C              -0.0349300000     -0.0084600000     13.5364700000
N               4.1824300000      0.0016300000     13.0874800000
C               4.5618900000     -0.1752800000     14.4028400000
C               3.4044500000     -0.3495500000     15.2140600000
C               5.7486600000     -0.1911700000     15.1403200000
C               5.4990700000     -0.3891100000     16.5188600000
S               3.7782600000     -0.5524700000     16.9075500000
C               6.6478600000     -0.4257100000     17.3335300000
C               7.8017500000     -0.2297900000     16.5639700000
S               7.4600000000     -0.0583200000     14.8421400000
N              -1.3095100000      0.0644800000     13.8998500000
S              -1.3465200000     -0.1576300000     15.5394600000
N               0.2743200000     -0.3488400000     15.8142800000
C               9.2030400000     -0.2797700000     17.0063500000
C               9.9598200000      0.8004600000     17.3941400000
C              11.3366700000      0.8666400000     17.8288300000
C              11.6382000000      2.2773900000     18.1395300000
C              10.4929300000      3.0753100000     17.9105200000
C               9.3966300000      2.2006900000     17.4380200000
C              10.4667200000      4.4487200000     18.1155600000
C              11.6334600000      5.0586500000     18.5683200000
C              12.7791300000      4.2882800000     18.8002700000
C              12.8061900000      2.9090000000     18.5948200000
F              13.8938500000      4.9061600000     19.2371000000
F              11.6714800000      6.3917600000     18.7865100000
C              12.2550700000     -0.2177400000     17.9451000000
C              13.5980100000     -0.0785400000     18.3860200000
N              14.7129600000     -0.0251200000     18.7422900000
O               8.2602100000      2.5462900000     17.1441400000
C               6.6483700000     -0.6241600000     18.8272300000
C               5.0546300000      0.6720100000     12.1084200000
C               3.2575600000     -0.7629600000      9.8897500000
C              -3.0868100000      0.3919800000      7.1126200000
O               2.0643000000      0.4314700000      4.4773700000
C              -1.9898100000     -0.8420500000      2.1319100000
C              -2.4989000000     -0.9440700000      0.7962400000
N              -2.9681500000     -1.0547800000     -0.2647700000
F               3.4442700000      1.8569200000     -0.5148300000
F               1.1442900000      1.3904000000     -1.8358000000
C              11.9368800000     -1.5662000000     17.6344100000
N              11.7304000000     -2.6946000000     17.3925400000
C              -2.7902000000     -1.5700400000      3.0731600000
N              -3.4686500000     -2.2066200000      3.7752000000
H              13.7275100000      2.3848500000     18.7948200000
H               9.5744200000      5.0331500000     17.9332400000
H               9.6375200000     -1.2712900000     16.9935400000
H               7.6661300000     -0.6866900000     19.2084800000
H               6.1240800000     -1.5444100000     19.0978100000
H               6.1486300000      0.2100500000     19.3270500000
H               5.6259100000      1.4452500000     12.6195400000
H               4.4442100000      1.1607700000     11.3563000000
H               5.7368200000     -0.0343900000     11.6388200000
H               2.8934200000     -1.5238600000      9.2013400000
H               3.8895100000     -1.2597000000     10.6186000000
H               3.8318800000     -0.0202900000      9.3383200000
H              -3.2821100000      1.1481600000      6.3507100000
H              -3.5986900000      0.7085200000      8.0205900000
H              -3.5405600000     -0.5472900000      6.7896200000
H              -2.0290900000     -0.1165300000      4.8438900000
H               3.4155600000      1.3298200000      2.0598900000
H              -0.8213700000      0.4586000000     -0.4640400000

  eps=3.36
  epsinf=3.36
  RSolv=7.28
 
