%mem=1000MW
%nprocshared=40
#p wB97XD/6-31g** nosymm pop=esp opt td=(triplet,nstates=3,root=2) scf=(MaxCycle=20000) iop(3/107=0001100000,3/108=0001100000) SCRF=(PCM,Solvent=Generic,Read)

 IT-4Cl opt-TDdft

0 1
C         -0.19803       -0.28837       -0.18373
C         -0.15559       -0.13877        1.21022
C          1.10769       -0.05927        1.81912
C          2.27818       -0.10662        1.05895
C          2.23875       -0.24153       -0.33872
C          0.97525       -0.33523       -0.94148
C         -1.45264       -0.18900        2.05899
C         -2.71608        0.18478        1.26874
C         -3.58441       -0.90563        1.18268
C         -3.01721       -2.07260        1.81711
C         -1.76120       -1.67939        2.35773
S         -5.08566       -0.57737        0.35559
C         -4.55133        1.08179        0.09481
C         -3.26510        1.32020        0.64983
C         -5.13707        2.17126       -0.54108
C         -4.30263        3.31438       -0.51099
S         -2.77845        2.96636        0.35771
C         -0.96583       -2.60161        3.02053
C         -1.44633       -3.91879        3.13472
C         -2.70310       -4.31205        2.59486
C         -3.49739       -3.38963        1.93050
C         -0.86297       -5.09243        3.73800
C         -1.68799       -6.20865        3.56933
C         -2.97536       -5.82190        2.82552
S          0.61508       -5.40671        4.61292
C          0.13372       -7.09597        4.76361
C         -1.12460       -7.35233        4.15762
S         -1.56484       -9.03809        4.31628
C         -0.06406       -9.38578        5.20258
C          0.72649       -8.20805        5.34268
C         -4.47099        4.63612       -0.98626
C         -5.44010        5.23383       -1.80403
C         -6.44063        4.54930       -2.68943
C         -6.97373        5.60151       -3.59763
C         -6.40347        6.84278       -3.26630
C         -5.50936        6.65644       -2.09080
C         -7.88942        5.44997       -4.62721
C         -8.24475        6.57930       -5.37678
C         -7.66949        7.82882       -5.07019
C         -6.75246        7.96851       -4.01541
Cl        -9.39875        6.38980       -6.67804
Cl        -8.07415        9.26100       -5.99111
O         -6.76219        3.36994       -2.71530
C         -4.93127        7.69592       -1.34664
C         -4.96460        9.07104       -1.73492
N         -4.94194       10.20926       -1.99532
C         -1.41488        0.69244        3.33711
C         -0.79017        1.95070        3.32584
C         -0.82586        2.78421        4.44532
C         -1.49187        2.40155        5.62144
C         -2.12520        1.14967        5.62497
C         -2.09124        0.31261        4.50590
C         -3.11186       -6.49674        1.43537
C         -4.35300       -6.55651        0.78102
C         -4.46524       -7.08613       -0.50631
C         -3.34416       -7.57417       -1.19692
C         -2.10332       -7.49924       -0.54564
C         -1.98732       -6.96847        0.74177
C         -4.17480       -6.08416        3.77726
C         -4.81665       -7.33381        3.80162
C         -5.84039       -7.60193        4.71167
C         -6.26533       -6.63813        5.64120
C         -5.61458       -5.39571        5.62207
C         -4.58809       -5.12422        4.71257
C          0.37755      -10.61033        5.75955
C         -0.12107      -11.91656        5.78996
C         -1.31286      -12.42745        5.04581
C         -1.30892      -13.90467        5.20754
C         -0.22803      -14.27681        6.02682
C          0.49153      -13.04770        6.46515
C         -0.01960      -15.63289        6.28943
C         -0.89571      -16.57974        5.73414
C         -1.98084      -16.18634        4.92589
C         -2.18851      -14.82622        4.66095
C         -3.47496       -8.18614       -2.58066
C         -7.39371       -6.93390        6.61335
O         -2.13341      -11.77852        4.41258
C          1.52349      -13.02318        7.41798
C          2.11070      -14.19350        7.99057
N          2.64496      -15.10130        8.49533
Cl        -0.59152      -18.26819        6.08049
Cl        -3.08606      -17.35263        4.23321
C         -1.50192        3.30166        6.84442
C          3.51395       -0.25592       -1.16312
C          2.08557      -11.83651        7.98399
N          2.58391      -10.91895        8.50790
C         -4.30442        7.52547       -0.07171
N         -3.80436        7.47368        0.98240
H         -8.32107        4.48334       -4.84762
H         -6.33751        8.94476       -3.82544
H         -3.67764        5.30342       -0.67520
H         -6.10251        2.17882       -1.01677
H         -0.00716       -2.32392        3.43468
H         -4.45185       -3.66878        1.50767
H          1.67776       -8.20873        5.85474
H          1.32931      -10.47646        6.25443
H          0.79453      -15.98927        6.89873
H         -3.01438      -14.50467        4.04119
H         -2.60260       -0.63998        4.55755
H          3.23482       -0.03456        1.56679
H          1.19026        0.04865        2.89334
H          0.89666       -0.44805       -2.01803
H         -1.14873       -0.37762       -0.69429
H         -2.65534        0.81537        6.51110
H         -0.32783        3.74720        4.39590
H         -0.25858        2.28665        2.44499
H         -5.24745       -6.19714        1.27414
H         -5.44375       -7.11996       -0.97471
H         -1.00608       -6.92242        1.19707
H         -1.20925       -7.85987       -1.04427
H         -4.11140       -4.15308        4.74750
H         -5.90631       -4.62317        6.32638
H         -6.31254       -8.57901        4.69363
H         -4.53044       -8.10654        3.10029
H         -1.68782        4.34365        6.57088
H         -2.26840        2.99874        7.56037
H         -0.53559        3.26764        7.35950
H          3.36053       -0.73459       -2.13256
H          3.86588        0.76467       -1.35090
H          4.31781       -0.78703       -0.64694
H         -7.24884       -7.89975        7.10547
H         -7.46858       -6.16860        7.38819
H         -8.35679       -6.97609        6.09323
H         -4.30477       -7.74452       -3.13718
H         -2.56275       -8.04954       -3.16588
H         -3.66199       -9.26356       -2.51037

  eps=4.88617
  epsinf=4.88617
  RSolv=8.36
 
