%mem=1000MW
%nprocshared=40
#p wB97XD/6-31g** nosymm pop=esp opt td=(nstates=2,root=1) scf=(MaxCycle=20000) iop(3/107=0001100000,3/108=0001100000) SCRF=(PCM,Solvent=Generic,Read)

 IT-4Cl opt-TDdft

0 1
C         -0.19793       -0.28801       -0.18362
C         -0.15542       -0.13874        1.21037
C          1.10789       -0.05964        1.81926
C          2.27835       -0.10705        1.05904
C          2.23884       -0.24160       -0.33864
C          0.97530       -0.33491       -0.94141
C         -1.45249       -0.18887        2.05916
C         -2.71593        0.18490        1.26890
C         -3.58432       -0.90549        1.18298
C         -3.01715       -2.07245        1.81743
C         -1.76110       -1.67926        2.35798
S         -5.08564       -0.57721        0.35600
C         -4.55122        1.08187        0.09501
C         -3.26492        1.32027        0.64992
C         -5.13696        2.17127       -0.54093
C         -4.30245        3.31438       -0.51108
S         -2.77819        2.96637        0.35756
C         -0.96573       -2.60149        3.02074
C         -1.44620       -3.91867        3.13497
C         -2.70300       -4.31192        2.59513
C         -3.49730       -3.38949        1.93084
C         -0.86283       -5.09235        3.73816
C         -1.68784       -6.20856        3.56943
C         -2.97523       -5.82180        2.82568
S          0.61522       -5.40668        4.61311
C          0.13386       -7.09595        4.76369
C         -1.12447       -7.35225        4.15766
S         -1.56469       -9.03802        4.31608
C         -0.06394       -9.38583        5.20240
C          0.72663       -8.20808        5.34263
C         -4.47074        4.63598       -0.98665
C         -5.44020        5.23363       -1.80414
C         -6.44098        4.54906       -2.68922
C         -6.97422        5.60121       -3.59742
C         -6.40372        6.84246       -3.26645
C         -5.50949        6.65621       -2.09099
C         -7.89005        5.44961       -4.62686
C         -8.24523        6.57884       -5.37665
C         -7.66964        7.82831       -5.07049
C         -6.75244        7.96806       -4.01583
Cl        -9.39949        6.38929       -6.67767
Cl        -8.07404        9.26033       -5.99176
O         -6.76261        3.36972       -2.71492
C         -4.93160        7.69576       -1.34681
C         -4.96547        9.07090       -1.73493
N         -4.94331       10.20917       -1.99519
C         -1.41467        0.69263        3.33725
C         -0.78969        1.95077        3.32599
C         -0.82532        2.78434        4.44540
C         -1.49155        2.40187        5.62147
C         -2.12513        1.15012        5.62501
C         -2.09121        0.31299        4.50600
C         -3.11173       -6.49652        1.43544
C         -4.35284       -6.55611        0.78103
C         -4.46507       -7.08563       -0.50635
C         -3.34401       -7.57374       -1.19692
C         -2.10319       -7.49900       -0.54558
C         -1.98719       -6.96832        0.74187
C         -4.17470       -6.08420        3.77735
C         -4.81661       -7.33384        3.80143
C         -5.84040       -7.60212        4.71136
C         -6.26534       -6.63849        5.64107
C         -5.61454       -5.39608        5.62223
C         -4.58800       -5.12443        4.71283
C          0.37762      -10.61039        5.75930
C         -0.12109      -11.91662        5.78970
C         -1.31273      -12.42747        5.04524
C         -1.30899      -13.90467        5.20716
C         -0.22834      -14.27683        6.02675
C          0.49130      -13.04774        6.46503
C         -0.02019      -15.63287        6.28970
C         -0.89632      -16.57971        5.73437
C         -1.98116      -16.18629        4.92574
C         -2.18857      -14.82619        4.66053
C         -3.47478       -8.18562       -2.58072
C         -7.39379       -6.93440        6.61310
O         -2.13312      -11.77850        4.41185
C          1.52321      -13.02326        7.41796
C          2.11035      -14.19360        7.99056
N          2.64458      -15.10141        8.49533
Cl        -0.59251      -18.26814        6.08118
Cl        -3.08633      -17.35255        4.23295
C         -1.50157        3.30206        6.84439
C          3.51402       -0.25605       -1.16309
C          2.08525      -11.83659        7.98401
N          2.58354      -10.91904        8.50796
C         -4.30459        7.52530       -0.07196
N         -3.80442        7.47354        0.98210
H         -8.32190        4.48301       -4.84701
H         -6.33716        8.94424       -3.82622
H         -3.67719        5.30328       -0.67613
H         -6.10240        2.17885       -1.01665
H         -0.00704       -2.32380        3.43486
H         -4.45179       -3.66864        1.50808
H          1.67790       -8.20884        5.85470
H          1.32937      -10.47659        6.25420
H          0.79369      -15.98926        6.89932
H         -3.01426      -14.50463        4.04051
H         -2.60276       -0.63950        4.55766
H          3.23501       -0.03533        1.56688
H          1.19049        0.04800        2.89351
H          0.89668       -0.44747       -2.01797
H         -1.14869       -0.37693       -0.69416
H         -2.65541        0.81601        6.51112
H         -0.32708        3.74721        4.39600
H         -0.25791        2.28652        2.44518
H         -5.24727       -6.19668        1.27413
H         -5.44356       -7.11932       -0.97479
H         -1.00599       -6.92242        1.19723
H         -1.20913       -7.85970       -1.04419
H         -4.11127       -4.15331        4.74799
H         -5.90630       -4.62368        6.32670
H         -6.31257       -8.57919        4.69310
H         -4.53037       -8.10640        3.09992
H         -1.68732        4.34406        6.57078
H         -2.26813        2.99928        7.56032
H         -0.53528        3.26796        7.35955
H          3.36044       -0.73428       -2.13273
H          3.86622        0.76453       -1.35048
H          4.31775       -0.78758       -0.64716
H         -7.24902       -7.90039        7.10499
H         -7.46863       -6.16929        7.38811
H         -8.35685       -6.97638        6.09291
H         -4.30482       -7.74422       -3.13708
H         -2.56270       -8.04865       -3.16605
H         -3.66146       -9.26310       -2.51051

  eps=4.88617
  epsinf=4.88617
  RSolv=8.36
 
