%mem=1000MW
%nprocshared=40
#p wB97XD/6-31g** nosymm pop=esp opt td=(nstates=2,root=1) scf=(MaxCycle=20000) iop(3/107=0001100000,3/108=0001100000) SCRF=(PCM,Solvent=Generic,Read)

 IT-4Cl opt-TDdft

0 1
C         -0.03080       -0.39571       -0.41173
C          0.03308       -0.22175        0.97840
C          1.30524       -0.16589        1.57134
C          2.46439       -0.25767        0.79852
C          2.40416       -0.41506       -0.59632
C          1.13166       -0.48623       -1.18252
C         -1.25398       -0.21871        1.84312
C         -2.51364        0.17728        1.05916
C         -3.42290       -0.91043        1.00650
C         -2.89804       -2.05220        1.64837
C         -1.60424       -1.69320        2.17666
S         -4.92191       -0.54690        0.16904
C         -4.32863        1.08916       -0.12398
C         -3.02758        1.30380        0.42545
C         -4.86232        2.18811       -0.76802
C         -3.98854        3.31540       -0.75067
S         -2.47441        2.93241        0.09839
C         -0.84143       -2.61693        2.84636
C         -1.36728       -3.93012        3.00363
C         -2.66485       -4.28707        2.48353
C         -3.42588       -3.36422        1.81010
C         -0.82793       -5.08029        3.61753
C         -1.70281       -6.19027        3.49831
C         -2.99136       -5.77731        2.77181
S          0.66205       -5.43451        4.47417
C          0.11706       -7.10078        4.67519
C         -1.17038       -7.32657        4.09932
S         -1.66346       -8.99315        4.31101
C         -0.15480       -9.36860        5.17390
C          0.67887       -8.21519        5.26683
C         -4.39210        4.53915       -1.33225
C         -3.79308        5.78817       -1.51157
C         -2.37002        6.13414       -1.24677
C         -2.15046        7.48667       -1.82853
C         -3.35828        7.96434       -2.36479
C         -4.42816        6.95400       -2.11305
C         -0.96999        8.21199       -1.88151
C         -0.98410        9.46474       -2.50839
C         -2.18324        9.95389       -3.06426
C         -3.37320        9.21158       -2.99227
Cl         0.50425       10.38112       -2.57990
Cl        -2.24096       11.50613       -3.87025
O         -1.52120        5.45500       -0.68365
C         -5.78802        7.16351       -2.34941
C         -6.32300        8.33045       -2.98214
N         -6.83402        9.24528       -3.49649
C         -1.17789        0.68825        3.10159
C         -0.51963        1.92872        3.05564
C         -0.52250        2.78760        4.15597
C         -1.18693        2.44932        5.34665
C         -1.85303        1.21525        5.38492
C         -1.85279        0.35301        4.28463
C         -3.19205       -6.49317        1.41194
C         -4.44970       -6.51698        0.78773
C         -4.61564       -7.08290       -0.47830
C         -3.53482       -7.64626       -1.17565
C         -2.27698       -7.60844       -0.55424
C         -2.10690       -7.04028        0.71080
C         -4.16963       -5.95498        3.76925
C         -4.87250       -7.16894        3.85060
C         -5.86923       -7.36196        4.80884
C         -6.20380       -6.35597        5.73049
C         -5.49404       -5.14850        5.65203
C         -4.49451       -4.95216        4.69481
C          0.25748      -10.59221        5.75076
C         -0.27703      -11.88067        5.81679
C         -1.49297      -12.37213        5.11398
C         -1.51810      -13.84899        5.29608
C         -0.42566      -14.23768        6.08983
C          0.32715      -13.01634        6.50352
C         -0.22964      -15.59508        6.35145
C         -1.13441      -16.53014        5.82339
C         -2.23473      -16.12004        5.04411
C         -2.42691      -14.75834        4.77703
C         -3.72383       -8.29546       -2.53539
C         -7.30203       -6.56978        6.75735
O         -2.31689      -11.71798        4.48790
C          1.36077      -13.00450        7.44167
C          1.90524      -14.18025        8.04982
N          2.40453      -15.09023        8.58383
Cl        -0.84684      -18.22239        6.16442
Cl        -3.37676      -17.27052        4.38669
C         -1.16209        3.37723        6.54845
C          3.66927       -0.47563       -1.43399
C          1.97614      -11.82226        7.96564
N          2.51538      -10.90961        8.45469
C         -6.83367        6.27311       -1.94341
N         -7.74433        5.61334       -1.62986
H         -0.05874        7.81930       -1.45187
H         -4.26192        9.63032       -3.43495
H         -5.38956        4.45071       -1.74080
H         -5.83501        2.22179       -1.23698
H          0.13082       -2.36580        3.24528
H         -4.39608       -3.61602        1.40651
H          1.64051       -8.23812        5.75867
H          1.22189      -10.47624        6.22573
H          0.59765      -15.96143        6.93666
H         -3.26269      -14.42619        4.17646
H         -2.38856       -0.58412        4.36306
H          3.42871       -0.20223        1.29369
H          1.40362       -0.04145        2.64242
H          1.03698       -0.61490       -2.25593
H         -0.98944       -0.46841       -0.91003
H         -2.38322        0.91551        6.28327
H         -0.00035        3.73594        4.07961
H          0.01086        2.23185        2.16255
H         -5.31500       -6.09991        1.28746
H         -5.60493       -7.08509       -0.92471
H         -1.11385       -7.02494        1.14189
H         -1.41226       -8.02718       -1.05908
H         -3.97064       -4.00512        4.68375
H         -5.71693       -4.34573        6.34756
H         -6.38931       -8.31416        4.83667
H         -4.65525       -7.97217        3.15891
H         -1.33029        4.41626        6.25285
H         -1.92487        3.10690        7.28111
H         -0.18978        3.33514        7.05148
H          3.48930       -0.94844       -2.40167
H          4.05655        0.53140       -1.62504
H          4.45828       -1.03574       -0.92544
H         -7.20051       -7.54138        7.24862
H         -7.28701       -5.79804        7.52915
H         -8.28897       -6.54639        6.28275
H         -4.57838       -7.87083       -3.06675
H         -2.83843       -8.17306       -3.16363
H         -3.90369       -9.37103       -2.42821

  eps=4.88617
  epsinf=4.88617
  RSolv=8.36
 
