%mem=800MW
%nprocshared=64
#p wB97XD/6-31g** opt td=(triplet,nstates=3,root=2) pop=esp scf=(MaxCycle=20000) nosymm iop(3/107=0002200000,3/108=0002200000) SCRF=(PCM,Solvent=Generic,Read)

ITIC

0  1
C         -0.15876       -0.14466       -0.01215
C         -0.06605        0.02481        1.37527
C          1.17103       -0.20954        2.01082
C          2.31241       -0.58183        1.30859
C          2.21264       -0.74235       -0.07963
C          0.98654       -0.53043       -0.72345
C          1.01066       -0.01663        3.47522
C         -0.42836        0.29619        3.70958
C         -1.06418        0.43363        2.40165
C         -1.08194        0.33516        4.93594
C         -0.67353        0.24190        6.29462
S          0.97433        0.13574        6.95438
C          0.35681        0.13120        8.58902
C         -1.06382        0.19460        8.59629
C         -1.63762        0.26068        7.33345
C          0.90132        0.06248        9.87533
C         -0.10317        0.07513       10.86400
S         -1.73136        0.17259       10.22802
C          2.29089        0.01054       10.52205
C          1.88500        0.02685       12.01873
C          0.45350        0.02129       12.16660
C          2.70217        0.02538       13.12487
C          2.08959        0.00339       14.40374
C          0.65872       -0.04098       14.55078
C         -0.15856       -0.02676       13.44490
C          0.25365       -0.11965       16.04595
C          1.64198       -0.06149       16.69475
C          2.64509        0.01977       15.70785
S          4.27046        0.13326       16.34797
C          3.60399        0.06548       17.97861
C          2.18558       -0.03493       17.98306
S          1.57028       -0.11818       19.61660
C          3.21601       -0.00040       20.28015
C          4.17766        0.08939       19.24284
C         -0.55489        1.11553       16.52352
C         -1.37708        1.05080       17.65911
C         -2.03864        2.18517       18.13570
C         -1.90232        3.43135       17.50463
C         -1.06504        3.49603       16.37925
C         -0.40188        2.36457       15.90045
C         -2.65010        4.65437       18.00412
C         -0.46310       -1.47889       16.25927
C         -1.84211       -1.61258       16.02396
C         -2.47270       -2.85340       16.12459
C         -1.75577       -4.01451       16.46020
C         -0.37787       -3.87858       16.68290
C          0.25734       -2.63782       16.58060
C          3.62609        0.04076       21.64081
C          2.97796       -0.06172       22.86650
C          3.61509        0.03333       24.17753
C          2.62041       -0.41634       25.19041
C          1.38582       -0.64399       24.54774
C          1.54384       -0.40305       23.09041
C          0.24826       -1.04940       25.23774
C          0.34890       -1.24930       26.62077
C          1.57226       -1.04276       27.27145
C          2.71381       -0.62486       26.57252
C          3.07808        1.27353       10.08524
C          3.90155        1.25650        8.94881
C          4.54452        2.41501        8.50667
C          4.38736        3.63927        9.17476
C          3.54918        3.65642       10.30128
C          2.90436        2.50043       10.74581
C          3.03268       -1.32820       10.26422
C          2.33412       -2.48798        9.90101
C          2.99168       -3.71304        9.75824
C          4.37113       -3.83197        9.98066
C          5.06638       -2.67022       10.35738
C          4.41347       -1.44507       10.49860
C          4.89077        0.52322       24.47557
C          5.78717        1.10557       23.52426
N          6.56780        1.60751       22.81463
O          0.65819       -0.48983       22.24746
C         -2.45328       -5.35573       16.59996
C          5.11511        4.88910        8.71361
C          5.09288       -5.15523        9.79915
C         -2.34051        0.93102        2.12078
C         -3.23613        1.47944        3.09290
N         -4.01551        1.95605        3.82104
O          1.89811       -0.11676        4.31472
C          5.45043        0.56013       25.79174
N          5.98125        0.62129       26.83035
C         -2.89903        1.01543        0.80634
N         -3.42807        1.11416       -0.23025
H         -0.51779       -1.56873       27.18798
H          1.64532       -1.20917       28.34022
H         -0.68620       -1.20793       24.71374
H          3.63633       -0.48472       27.11371
H          4.69921        0.16134       21.70298
H          5.23644        0.17455       19.44001
H         -1.23470       -0.04586       13.53772
H          3.77826        0.04501       13.03167
H         -2.69820        0.32718        7.13844
H         -2.15720        0.43744        4.87512
H         -1.08349        0.00067       -0.54828
H          0.91414       -0.66812       -1.79633
H          3.08221       -1.03596       -0.65635
H          3.24877       -0.74588        1.82741
H          0.24124        2.46954       15.03574
H         -3.54051       -2.91474       15.93950
H         -2.43843       -0.74608       15.76661
H          0.21613       -4.74971       16.94024
H          1.32537       -2.58814       16.75045
H         -0.92251        4.44231       15.86711
H         -2.66679        2.09140       19.01566
H         -1.51474        0.11245       18.17999
H          4.99360       -0.57722       10.78670
H          6.13476       -2.71860       10.54318
H          1.26587       -2.45186        9.72920
H          2.41394       -4.58535        9.46982
H          2.25959        2.56815       11.61318
H          3.39137        4.58478       10.84102
H          5.17454        2.35797        7.62485
H          4.05475        0.33641        8.40037
H         -2.82910        4.60083       19.08029
H         -2.09834        5.57440       17.79801
H         -3.62581        4.74020       17.51255
H         -1.74987       -6.18501       16.50048
H         -2.93196       -5.44470       17.58149
H         -3.23325       -5.48048       15.84444
H          5.28683        4.87703        7.63493
H          4.55245        5.79346        8.95650
H          6.09323        4.97065        9.20112
H          5.86680       -5.29500       10.55833
H          4.40287       -5.99936        9.85968
H          5.58362       -5.19934        8.82058
                                                   
  eps=4.53299                                      
  epsinf=4.53299                                   
  RSolv=8.11                                       
   
