%mem=800MW
%nprocshared=32
%chk=Y6-HSO-scan-160-S1fromT2.gjf.chk
%rwf=Y6-HSO-scan-160-S1fromT2.gjf.rwf
#p wB97XD/6-31g** td(50-50,nstates=5) 6D 10F nosymm GFInput scf=(MaxCycle=20000) iop(3/107=0016000000,3/108=0016000000) SCRF=(PCM,Solvent=Generic,Read)

 HSO

0 1
C              -0.1139900000      0.5559900000     -0.0066200000
C              -0.0180000000      0.3247100000      1.3708200000
C               1.1712800000      0.6503300000      2.0455300000
C               2.2807400000      1.1837600000      1.3975500000
C               2.1762800000      1.4073000000      0.0297600000
C               0.9894700000      1.1021200000     -0.6556000000
C              -0.9743600000     -0.2588600000      2.3507800000
C              -0.3798000000     -0.1136900000      3.6803900000
C               1.0160900000      0.3558900000      3.4956400000
C              -1.0747000000     -0.2200500000      4.8781500000
C              -0.7255900000     -0.1308500000      6.2473300000
S               0.9262800000     -0.0547200000      6.9143000000
C               0.3060500000     -0.1186500000      8.5283800000
C              -1.1037600000     -0.1546200000      8.5458500000
C              -1.7041200000     -0.1640900000      7.2805800000
S              -1.7773000000     -0.1638400000     10.1857000000
C              -0.1538800000     -0.1185400000     10.8284100000
C               0.8369600000     -0.0932300000      9.8363900000
N               2.0904800000     -0.0846900000     10.4302300000
C               1.8918700000     -0.0720700000     11.8069700000
C               0.4939300000     -0.1324500000     12.0804600000
C               2.8271100000     -0.0022700000     12.8878000000
C               2.3938000000     -0.2665800000     14.2191600000
C               0.9948200000     -0.4284900000     14.5039600000
C               0.0288900000     -0.2928700000     13.4301400000
N               4.1949000000      0.2683100000     12.8962500000
C               4.6321800000      0.1165800000     14.2030000000
C               3.5475000000     -0.2171700000     15.0263500000
C               5.8433100000      0.2262500000     14.9187700000
C               5.6673300000     -0.0353100000     16.2922800000
S               3.9956400000     -0.4219700000     16.7061400000
C               6.8592200000     -0.0309600000     17.0686300000
C               7.9940300000      0.3297600000     16.2423400000
S               7.5168200000      0.5244600000     14.5425900000
N              -1.2343200000     -0.3978000000     13.8302500000
S              -1.1937500000     -0.6576500000     15.4651500000
N               0.4457500000     -0.6376200000     15.6961000000
C               9.3441200000      0.4980800000     16.5689900000
C               9.9049300000      0.7290400000     17.8829300000
C              11.1272400000      0.2019500000     18.4209600000
C              11.4318900000      0.9711500000     19.6338700000
C              10.4323300000      1.9746500000     19.7990700000
C               9.4980400000      1.8151000000     18.7211700000
C              10.4243800000      2.8593500000     20.8859100000
C              11.4370800000      2.7319700000     21.8212600000
C              12.4211100000      1.7330300000     21.6792800000
C              12.4313300000      0.8467900000     20.6063400000
F              13.3776700000      1.6436400000     22.6174700000
F              11.4971100000      3.5603800000     22.8821400000
C              11.8852500000     -0.8743700000     17.8787700000
C              13.1990000000     -1.1971200000     18.3094400000
N              14.2870200000     -1.4841100000     18.6318100000
O               8.4906300000      2.6623400000     18.5525200000
C               6.9459400000     -0.4338700000     18.4276600000
C               4.9292200000      1.0849600000     11.9195400000
C               3.2906100000     -0.5481200000      9.7186100000
C              -3.1968800000     -0.2135400000      7.0601600000
O               1.8839100000      0.5097800000      4.3461400000
C              -2.1514500000     -0.9118700000      2.0128300000
C              -2.6811700000     -0.9681200000      0.6839800000
N              -3.1733100000     -1.0443900000     -0.3706600000
F               3.2072800000      1.9248700000     -0.6553500000
F               0.9258400000      1.3475600000     -1.9734100000
C              11.3832400000     -1.7350400000     16.8644900000
N              11.0011900000     -2.4652600000     16.0336500000
C              -2.9451600000     -1.6729700000      2.9303900000
N              -3.6259600000     -2.3372000000      3.6053200000
H              13.2119200000      0.1025000000     20.5615300000
H               9.6642000000      3.6190100000     21.0069900000
H              10.0518600000      0.4818900000     15.7468700000
H               7.8983700000     -0.6186600000     18.9000700000
H               6.0515600000     -0.6224700000     19.0053200000
H               7.9646400000      2.4246800000     17.7778100000
H               5.3938000000      1.9258600000     12.4337600000
H               4.2334900000      1.4925400000     11.1929200000
H               5.6972300000      0.5036500000     11.4104900000
H               3.0111400000     -1.3508000000      9.0374600000
H               3.9999400000     -0.9558700000     10.4320700000
H               3.7540500000      0.2590600000      9.1525700000
H              -3.5268800000      0.5563000000      6.3603800000
H              -3.7320200000     -0.0547700000      7.9956000000
H              -3.5012100000     -1.1852700000      6.6665700000
H              -2.1388200000     -0.3819000000      4.7593700000
H               3.1938900000      1.4209800000      1.9267500000
H              -0.9966500000      0.3478400000     -0.5906800000

  eps=3.36
  epsinf=3.36
  RSolv=7.28
 
