%mem=800MW
%nprocshared=32
%chk=IT-4Cl-HSO-scan-60-S1fromT1.chk
%rwf=IT-4Cl-HSO-scan-60-S1fromT1.rwf
#p wB97XD/6-31g** td(50-50,nstates=5) 6D 10F nosymm GFInput scf=(MaxCycle=20000) iop(3/107=0001100000,3/108=0001100000) SCRF=(PCM,Solvent=Generic,Read)

 HSO

0 1
C              -0.0308000000     -0.3957100000     -0.4117300000
C               0.0330800000     -0.2217500000      0.9784000000
C               1.3052400000     -0.1658900000      1.5713400000
C               2.4643900000     -0.2576700000      0.7985200000
C               2.4041600000     -0.4150600000     -0.5963200000
C               1.1316600000     -0.4862300000     -1.1825200000
C              -1.2539800000     -0.2187100000      1.8431200000
C              -2.5136400000      0.1772800000      1.0591600000
C              -3.4229000000     -0.9104300000      1.0065000000
C              -2.8980400000     -2.0522000000      1.6483700000
C              -1.6042400000     -1.6932000000      2.1766600000
S              -4.9219100000     -0.5469000000      0.1690400000
C              -4.3286300000      1.0891600000     -0.1239800000
C              -3.0275800000      1.3038000000      0.4254500000
C              -4.8623200000      2.1881100000     -0.7680200000
C              -3.9885400000      3.3154000000     -0.7506700000
S              -2.4744100000      2.9324100000      0.0983900000
C              -0.8414300000     -2.6169300000      2.8463600000
C              -1.3672800000     -3.9301200000      3.0036300000
C              -2.6648500000     -4.2870700000      2.4835300000
C              -3.4258800000     -3.3642200000      1.8101000000
C              -0.8279300000     -5.0802900000      3.6175300000
C              -1.7028100000     -6.1902700000      3.4983100000
C              -2.9913600000     -5.7773100000      2.7718100000
S               0.6620500000     -5.4345100000      4.4741700000
C               0.1170600000     -7.1007800000      4.6751900000
C              -1.1703800000     -7.3265700000      4.0993200000
S              -1.6634600000     -8.9931500000      4.3110100000
C              -0.1548000000     -9.3686000000      5.1739000000
C               0.6788700000     -8.2151900000      5.2668300000
C              -4.3921000000      4.5391500000     -1.3322500000
C              -3.7930800000      5.7881700000     -1.5115700000
C              -2.3700200000      6.1341400000     -1.2467700000
C              -2.1504600000      7.4866700000     -1.8285300000
C              -3.3582800000      7.9643400000     -2.3647900000
C              -4.4281600000      6.9540000000     -2.1130500000
C              -0.9699900000      8.2119900000     -1.8815100000
C              -0.9841000000      9.4647400000     -2.5083900000
C              -2.1832400000      9.9538900000     -3.0642600000
C              -3.3732000000      9.2115800000     -2.9922700000
Cl              0.5042500000     10.3811200000     -2.5799000000
Cl             -2.2409600000     11.5061300000     -3.8702500000
O              -1.5212000000      5.4550000000     -0.6836500000
C              -5.7880200000      7.1635100000     -2.3494100000
C              -6.3230000000      8.3304500000     -2.9821400000
N              -6.8340200000      9.2452800000     -3.4964900000
C              -1.1778900000      0.6882500000      3.1015900000
C              -0.5196300000      1.9287200000      3.0556400000
C              -0.5225000000      2.7876000000      4.1559700000
C              -1.1869300000      2.4493200000      5.3466500000
C              -1.8530300000      1.2152500000      5.3849200000
C              -1.8527900000      0.3530100000      4.2846300000
C              -3.1920500000     -6.4931700000      1.4119400000
C              -4.4497000000     -6.5169800000      0.7877300000
C              -4.6156400000     -7.0829000000     -0.4783000000
C              -3.5348200000     -7.6462600000     -1.1756500000
C              -2.2769800000     -7.6084400000     -0.5542400000
C              -2.1069000000     -7.0402800000      0.7108000000
C              -4.1696300000     -5.9549800000      3.7692500000
C              -4.8725000000     -7.1689400000      3.8506000000
C              -5.8692300000     -7.3619600000      4.8088400000
C              -6.2038000000     -6.3559700000      5.7304900000
C              -5.4940400000     -5.1485000000      5.6520300000
C              -4.4945100000     -4.9521600000      4.6948100000
C               0.2574800000    -10.5922100000      5.7507600000
C              -0.2770300000    -11.8806700000      5.8167900000
C              -1.4929700000    -12.3721300000      5.1139800000
C              -1.5181000000    -13.8489900000      5.2960800000
C              -0.4256600000    -14.2376800000      6.0898300000
C               0.3271500000    -13.0163400000      6.5035200000
C              -0.2296400000    -15.5950800000      6.3514500000
C              -1.1344100000    -16.5301400000      5.8233900000
C              -2.2347300000    -16.1200400000      5.0441100000
C              -2.4269100000    -14.7583400000      4.7770300000
C              -3.7238300000     -8.2954600000     -2.5353900000
C              -7.3020300000     -6.5697800000      6.7573500000
O              -2.3168900000    -11.7179800000      4.4879000000
C               1.3607700000    -13.0045000000      7.4416700000
C               1.9052400000    -14.1802500000      8.0498200000
N               2.4045300000    -15.0902300000      8.5838300000
Cl             -0.8468400000    -18.2223900000      6.1644200000
Cl             -3.3767600000    -17.2705200000      4.3866900000
C              -1.1620900000      3.3772300000      6.5484500000
C               3.6692700000     -0.4756300000     -1.4339900000
C               1.9761400000    -11.8222600000      7.9656400000
N               2.5153800000    -10.9096100000      8.4546900000
C              -6.8336700000      6.2731100000     -1.9434100000
N              -7.7443300000      5.6133400000     -1.6298600000
H              -0.0587400000      7.8193000000     -1.4518700000
H              -4.2619200000      9.6303200000     -3.4349500000
H              -5.3895600000      4.4507100000     -1.7408000000
H              -5.8350100000      2.2217900000     -1.2369800000
H               0.1308200000     -2.3658000000      3.2452800000
H              -4.3960800000     -3.6160200000      1.4065100000
H               1.6405100000     -8.2381200000      5.7586700000
H               1.2218900000    -10.4762400000      6.2257300000
H               0.5976500000    -15.9614300000      6.9366600000
H              -3.2626900000    -14.4261900000      4.1764600000
H              -2.3885600000     -0.5841200000      4.3630600000
H               3.4287100000     -0.2022300000      1.2936900000
H               1.4036200000     -0.0414500000      2.6424200000
H               1.0369800000     -0.6149000000     -2.2559300000
H              -0.9894400000     -0.4684100000     -0.9100300000
H              -2.3832200000      0.9155100000      6.2832700000
H              -0.0003500000      3.7359400000      4.0796100000
H               0.0108600000      2.2318500000      2.1625500000
H              -5.3150000000     -6.0999100000      1.2874600000
H              -5.6049300000     -7.0850900000     -0.9247100000
H              -1.1138500000     -7.0249400000      1.1418900000
H              -1.4122600000     -8.0271800000     -1.0590800000
H              -3.9706400000     -4.0051200000      4.6837500000
H              -5.7169300000     -4.3457300000      6.3475600000
H              -6.3893100000     -8.3141600000      4.8366700000
H              -4.6552500000     -7.9721700000      3.1589100000
H              -1.3302900000      4.4162600000      6.2528500000
H              -1.9248700000      3.1069000000      7.2811100000
H              -0.1897800000      3.3351400000      7.0514800000
H               3.4893000000     -0.9484400000     -2.4016700000
H               4.0565500000      0.5314000000     -1.6250400000
H               4.4582800000     -1.0357400000     -0.9254400000
H              -7.2005100000     -7.5413800000      7.2486200000
H              -7.2870100000     -5.7980400000      7.5291500000
H              -8.2889700000     -6.5463900000      6.2827500000
H              -4.5783800000     -7.8708300000     -3.0667500000
H              -2.8384300000     -8.1730600000     -3.1636300000
H              -3.9036900000     -9.3710300000     -2.4282100000

  eps=4.88617
  epsinf=4.88617
  RSolv=8.36
 
