%mem=1000MW
%nprocshared=40
#p wB97XD/6-31g** nosymm pop=esp opt td=(nstates=2,root=1) scf=(MaxCycle=20000) iop(3/107=0001100000,3/108=0001100000) SCRF=(PCM,Solvent=Generic,Read)

 IT-4Cl opt-TDdft

0 1
C         -0.03702       -0.40573       -0.41688
C          0.03211       -0.23037        0.97290
C          1.30603       -0.17648        1.56228
C          2.46234       -0.27115        0.78578
C          2.39723       -0.42953       -0.60886
C          1.12279       -0.49882       -1.19121
C         -1.25264       -0.22298        1.84094
C         -2.51343        0.17410        1.06217
C         -3.42083       -0.90339        1.00879
C         -2.89422       -2.05391        1.64909
C         -1.60297       -1.69589        2.17406
S         -4.91921       -0.53932        0.18087
C         -4.32790        1.09538       -0.11059
C         -3.03038        1.31000        0.43026
C         -4.86728        2.20158       -0.75301
C         -3.99622        3.31989       -0.73711
S         -2.47880        2.93538        0.10579
C         -0.83926       -2.62280        2.84376
C         -1.36743       -3.92973        2.99866
C         -2.66157       -4.28628        2.47992
C         -3.42358       -3.36018        1.80672
C         -0.82949       -5.08652        3.61729
C         -1.70208       -6.18684        3.49585
C         -2.98765       -5.77531        2.76641
S          0.65415       -5.43802        4.47605
C          0.10888       -7.10173        4.67911
C         -1.17107       -7.32979        4.10334
S         -1.66508       -8.99188        4.31635
C         -0.15825       -9.36600        5.18343
C          0.67171       -8.22059        5.27794
C         -4.40235        4.55147       -1.31790
C         -3.80458        5.79498       -1.50007
C         -2.38135        6.14022       -1.23349
C         -2.15957        7.48980       -1.81932
C         -3.36821        7.96730       -2.35789
C         -4.43822        6.96273       -2.10711
C         -0.97853        8.21336       -1.87249
C         -0.99007        9.46548       -2.50212
C         -2.18858        9.95494       -3.05935
C         -3.37977        9.21497       -2.98733
Cl         0.49989       10.37940       -2.57432
Cl        -2.24322       11.50639       -3.86772
O         -1.53452        5.46156       -0.66614
C         -5.79930        7.17098       -2.34901
C         -6.33221        8.33398       -2.98871
N         -6.84115        9.24704       -3.50949
C         -1.17388        0.68353        3.09936
C         -0.50851        1.92021        3.05456
C         -0.50944        2.77887        4.15493
C         -1.17860        2.44415        5.34412
C         -1.85203        1.21390        5.38086
C         -1.85447        0.35212        4.28050
C         -3.18267       -6.48763        1.40387
C         -4.43726       -6.50939        0.77349
C         -4.59686       -7.07359       -0.49398
C         -3.51265       -7.63687       -1.18637
C         -2.25785       -7.60070       -0.55858
C         -2.09388       -7.03416        0.70788
C         -4.16767       -5.95416        3.76128
C         -4.87763       -7.16455        3.83272
C         -5.87664       -7.35817        4.78830
C         -6.20627       -6.35677        5.71692
C         -5.48862       -5.15324        5.64872
C         -4.48652       -4.95629        4.69465
C          0.25345      -10.59558        5.76542
C         -0.27876      -11.87972        5.83081
C         -1.49788      -12.36879        5.13111
C         -1.52463      -13.84491        5.31230
C         -0.42962      -14.23495        6.10460
C          0.32721      -13.01982        6.51515
C         -0.23833      -15.59409        6.36723
C         -1.14701      -16.52649        5.84160
C         -2.24770      -16.11471        5.06362
C         -2.43676      -14.75195        4.79622
C         -3.69520       -8.28440       -2.54766
C         -7.30639       -6.57200        6.74121
O         -2.32245      -11.71236        4.50765
C          1.37013      -13.00977        7.44615
C          1.91916      -14.18585        8.04736
N          2.42272      -15.09774        8.57534
Cl        -0.86406      -18.21960        6.18400
Cl        -3.39382      -17.26265        4.40851
C         -1.15176        3.37223        6.54554
C          3.65962       -0.49285       -1.45018
C          1.99040      -11.82945        7.96564
N          2.53451      -10.91587        8.44912
C         -6.84491        6.28240       -1.94275
N         -7.75506        5.62075       -1.62932
H         -0.06830        7.82047       -1.44082
H         -4.26780        9.63443       -3.43076
H         -5.40325        4.46341       -1.71826
H         -5.84265        2.23437       -1.21645
H          0.13328       -2.37286        3.24222
H         -4.39406       -3.61078        1.40352
H          1.63203       -8.24028        5.77251
H          1.21569      -10.47653        6.24418
H          0.58853      -15.96225        6.95190
H         -3.27333      -14.41787        4.19776
H         -2.39724       -0.58116        4.35737
H          3.42832       -0.21700        1.27773
H          1.40803       -0.05094        2.63288
H          1.02458       -0.62796       -2.26418
H         -0.99753       -0.47704       -0.91181
H         -2.38627        0.91734        6.27780
H          0.01776        3.72444        4.07986
H          0.02513        2.22070        2.16252
H         -5.30501       -6.09260        1.26911
H         -5.58377       -7.07469       -0.94547
H         -1.10340       -7.01974        1.14497
H         -1.39095       -8.01953       -1.05948
H         -3.95585       -4.01290        4.69298
H         -5.70696       -4.35454        6.35025
H         -6.40236       -8.30739        4.80876
H         -4.66327       -7.96462        3.13657
H         -1.31856        4.41134        6.24950
H         -1.91440        3.10325        7.27877
H         -0.17908        3.32885        7.04768
H          3.47591       -0.96512       -2.41735
H          4.04821        0.51349       -1.64206
H          4.44890       -1.05447       -0.94379
H         -7.20403       -7.54332        7.23285
H         -7.29463       -5.80002        7.51274
H         -8.29212       -6.55091        6.26410
H         -4.54705       -7.85908       -3.08269
H         -2.80659       -8.16167       -3.17123
H         -3.87577       -9.35998       -2.44211

  eps=4.88617
  epsinf=4.88617
  RSolv=8.36
 
