%mem=800MW
%nprocshared=32
%chk=Y6-HSO-scan-65-T2fromS1.chk
%rwf=Y6-HSO-scan-65-T2fromS1.rwf
#p wB97XD/6-31g** td(50-50,nstates=5) 6D 10F nosymm GFInput scf=(MaxCycle=20000) iop(3/107=0016000000,3/108=0016000000) SCRF=(PCM,Solvent=Generic,Read)

 HSO

0 1
C              13.8681600000      2.4350700000     16.9625000000
C              12.5783400000      2.0275900000     16.6020700000
C              11.9676600000      2.5975500000     15.4689600000
C              12.5967500000      3.5473300000     14.6723200000
C              13.8781800000      3.9457800000     15.0400600000
C              14.4962100000      3.3963200000     16.1734500000
C              10.6045300000      2.0275300000     15.3074800000
C              10.3849600000      1.1269400000     16.4729300000
C              11.6504600000      1.0294000000     17.1922300000
C               9.1689300000      0.6184100000     16.9199900000
C               7.8561600000      0.5642500000     16.3824800000
C               6.7414500000      0.1062600000     17.1504800000
C               5.5866600000      0.0426000000     16.3674300000
C               5.7589700000      0.4351300000     15.0193900000
S               7.3962200000      0.9299500000     14.7044600000
S               3.9265900000     -0.4663400000     16.7427800000
C               3.4809900000     -0.1428100000     15.0849700000
C               4.5633700000      0.3265000000     14.2946900000
C               2.3486100000     -0.1836300000     14.2771900000
C               2.7721700000      0.2207900000     12.9565600000
N               4.1260000000      0.5696100000     13.0064000000
C               0.9613000000     -0.4661000000     14.5362200000
C              -0.0040400000     -0.3215600000     13.4686600000
C               0.4555800000     -0.0235500000     12.1372300000
C               1.8655900000      0.1628900000     11.8819300000
C              -0.1845400000      0.0667300000     10.9046400000
C               0.8116200000      0.2493900000      9.9095500000
N               2.0582900000      0.2903700000     10.5027000000
C               0.2838400000      0.2917500000      8.6110500000
C              -1.1239200000      0.1600800000      8.6184600000
S              -1.8015400000     -0.0326200000     10.2497300000
C              -1.7266400000      0.2150800000      7.3597600000
C              -0.7496300000      0.3906000000      6.3309100000
S               0.8933900000      0.5286100000      6.9990900000
N              -1.2569100000     -0.5480900000     13.8433300000
S              -1.2080600000     -0.9284500000     15.4550900000
N               0.4258100000     -0.8059700000     15.7021200000
C              -1.0993800000      0.3785300000      4.9554900000
C              -0.4100600000      0.6175500000      3.7695400000
C              -0.9751500000      0.5073700000      2.4286300000
C              -0.0373200000      1.1778100000      1.4914200000
C               1.1176300000      1.5573000000      2.2009600000
C               0.9541600000      1.1957500000      3.6323100000
C               2.2051700000      2.1764700000      1.5957600000
C               2.1181200000      2.4349300000      0.2315300000
C               0.9689500000      2.0751700000     -0.4883400000
C              -0.1136400000      1.4423200000      0.1185000000
F               3.1315400000      3.0354000000     -0.4134800000
F               0.9186000000      2.3512900000     -1.8010700000
C              -2.1324600000     -0.1733300000      2.0447500000
C              -2.8948500000     -1.0233700000      2.9044100000
N              -3.5512700000     -1.7572500000      3.5319400000
O               1.7901400000      1.3727600000      4.5101500000
C              -3.2120500000      0.0949200000      7.1233400000
C               3.2861100000     -0.0302400000      9.7578700000
C               4.8162200000      1.5156800000     12.1143900000
C               6.8006500000     -0.2633300000     18.6124100000
C              11.9914700000      0.1096700000     18.1853700000
C              11.1788800000     -1.0050600000     18.5614800000
N              10.5869700000     -1.9535800000     18.8976100000
O               9.8288100000      2.2848600000     14.3954500000
F              14.5381500000      4.8648600000     14.3166800000
F              15.7286000000      3.8148300000     16.5017500000
C              13.2341100000      0.1216100000     18.8911000000
N              14.2229300000      0.0836700000     19.5106500000
C              -2.6621700000     -0.1578400000      0.7175200000
N              -3.1557000000     -0.1768400000     -0.3404500000
H              14.3990400000      2.0572700000     17.8220100000
H              12.1180800000      3.9693200000     13.7988500000
H               9.2052700000      0.1799500000     17.9088000000
H               7.3321600000     -1.2061000000     18.7593100000
H               5.7994300000     -0.3827400000     19.0258000000
H               7.3050800000      0.5069800000     19.1989700000
H               5.2218900000      2.3336900000     12.7084400000
H               4.1012900000      1.9406900000     11.4171300000
H               5.6233900000      1.0278600000     11.5696800000
H               3.0583700000     -0.7866400000      9.0081700000
H               4.0197700000     -0.4525700000     10.4371100000
H               3.6947800000      0.8526900000      9.2686700000
H              -3.4600100000     -0.8614700000      6.6583300000
H              -3.5809300000      0.8930800000      6.4761100000
H              -3.7615500000      0.1573400000      8.0621900000
H              -2.1486400000      0.1484100000      4.8226500000
H               3.0903000000      2.4521400000      2.1533700000
H              -0.9645700000      1.1920500000     -0.4953300000

  eps=3.36
  epsinf=3.36
  RSolv=7.28
 

