%mem=800MW
%nprocshared=32
%chk=Y6-HSO-scan-100-S1fromT1.chk
%rwf=Y6-HSO-scan-100-S1fromT1.rwf
#p wB97XD/6-31g** td(50-50,nstates=5) 6D 10F nosymm GFInput scf=(MaxCycle=20000) iop(3/107=0016000000,3/108=0016000000) SCRF=(PCM,Solvent=Generic,Read)

 HSO

0 1
C              -0.0292700000      0.3832300000      0.0519800000
C               0.0731900000      0.1717300000      1.4325700000
C               1.2845800000      0.4522300000      2.0917200000
C               2.4120600000      0.9179500000      1.4205100000
C               2.3016400000      1.1199800000      0.0508400000
C               1.0915000000      0.8615800000     -0.6177200000
C              -0.8990400000     -0.3480600000      2.4248400000
C              -0.3009700000     -0.1595000000      3.7568900000
C               1.1323700000      0.2001100000      3.5478100000
C              -1.0107600000     -0.1149500000      4.9356500000
C              -0.6558200000      0.0465800000      6.3105100000
S               0.9815500000     -0.0812600000      6.9788300000
C               0.3575500000      0.0525700000      8.5875400000
C              -1.0378200000      0.2343400000      8.5938100000
C              -1.6323000000      0.2329500000      7.3196600000
S              -1.7186600000      0.4321800000     10.2176900000
C              -0.1110600000      0.2713100000     10.8799000000
C               0.8850900000      0.0843300000      9.8982000000
N               2.1165000000     -0.0606900000     10.5002700000
C               1.9177400000      0.0655300000     11.8758600000
C               0.5140100000      0.2285800000     12.1307000000
C               2.8350100000      0.0883500000     12.9534300000
C               2.3509500000     -0.0157200000     14.3085700000
C               0.9374200000      0.0408100000     14.5770500000
C               0.0159200000      0.2334800000     13.4811200000
N               4.2257200000      0.1662000000     12.9727900000
C               4.6230900000      0.0397000000     14.2889800000
C               3.4759600000     -0.0779700000     15.1246600000
C               5.8210600000      0.0290100000     15.0074700000
C               5.5905900000     -0.1077000000     16.3970200000
S               3.8731800000     -0.2160100000     16.8191000000
C               6.7522600000     -0.1468300000     17.1923300000
C               7.8985500000     -0.0194900000     16.3955500000
S               7.5295900000      0.0989300000     14.6746800000
N              -1.2525100000      0.3374600000     13.8583800000
S              -1.2684900000      0.1918400000     15.5066200000
N               0.3537400000     -0.0054300000     15.7679200000
C               9.3032100000     -0.1125200000     16.8149900000
C              10.1177900000      0.9445300000     17.1492500000
C              11.5038800000      0.9582500000     17.5555000000
C              11.8788300000      2.3626400000     17.8145300000
C              10.7706500000      3.2075200000     17.5735800000
C               9.6241400000      2.3709100000     17.1505800000
C              10.8161300000      4.5866900000     17.7303600000
C              12.0189400000      5.1530400000     18.1449200000
C              13.1279600000      4.3350500000     18.3896900000
C              13.0825000000      2.9496200000     18.2332600000
F              14.2788400000      4.9100000000     18.7898900000
F              12.1256500000      6.4894200000     18.3145100000
C              12.3733700000     -0.1633100000     17.6877900000
C              13.7325200000     -0.0719200000     18.0902800000
N              14.8576700000     -0.0578900000     18.4166400000
O               8.5009300000      2.7615700000     16.8625500000
C               6.7761300000     -0.2925900000     18.6917900000
C               5.0881700000      0.7901700000     11.9549800000
C               3.2459000000     -0.7248400000      9.8288300000
C              -3.1144400000      0.4025900000      7.0852100000
O               2.0106700000      0.3044700000      4.3914000000
C              -2.0776200000     -1.0061000000      2.1285200000
C              -2.5986000000     -1.1498100000      0.8012600000
N              -3.0768100000     -1.2933700000     -0.2518000000
F               3.3451100000      1.5739200000     -0.6551300000
F               1.0271000000      1.0876300000     -1.9363300000
C              11.9880300000     -1.5049500000     17.4269600000
N              11.7268800000     -2.6298800000     17.2256500000
C              -2.8756700000     -1.6943600000      3.1011800000
N              -3.5534600000     -2.2991500000      3.8313900000
H              13.9787400000      2.3866800000     18.4418000000
H               9.9518900000      5.2094200000     17.5396800000
H               9.6915300000     -1.1230900000     16.8324600000
H               7.7999400000     -0.3505100000     19.0569700000
H               6.2493900000     -1.1985900000     19.0030300000
H               6.2913200000      0.5622800000     19.1707700000
H               5.6646900000      1.5863400000     12.4233500000
H               4.4682600000      1.2419500000     11.1877000000
H               5.7649000000      0.0620700000     11.5113700000
H               2.8597500000     -1.5129400000      9.1842900000
H               3.8824600000     -1.1941600000     10.5718200000
H               3.8228000000     -0.0197400000      9.2326000000
H              -3.3206000000      1.0755000000      6.2521400000
H              -3.5968900000      0.8247700000      7.9662700000
H              -3.5889600000     -0.5591900000      6.8780100000
H              -2.0839100000     -0.1945500000      4.8171900000
H               3.3419700000      1.1209100000      1.9341700000
H              -0.9306700000      0.2124500000     -0.5154900000

  eps=3.36
  epsinf=3.36
  RSolv=7.28
 
