%mem=800MW
%nprocshared=40
%chk=IT-2F-TDDFT-S1toT1-Singlet.chk
#p wB97XD/6-31g** td=(nstates=1) scf=(MaxCycle=20000) iop(3/107=0003000000,3/108=0003000000) SCRF=(PCM,Solvent=Generic,Read)

IT-2F

0  1
C              -4.9805800000     15.4535700000     -0.7121600000
C              -4.7645200000     14.1059600000     -0.4061400000
C              -4.3955700000     13.7464000000      0.9071100000
C              -4.2488100000     14.6872200000      1.9223800000
C              -4.4635200000     16.0366700000      1.6263600000
C              -4.8182300000     16.3818600000      0.3200700000
C              -4.1975300000     12.2782000000      0.9743100000
C              -4.4105900000     11.7565100000     -0.4074700000
C              -4.8626100000     12.8719000000     -1.2337100000
C              -4.1115000000     10.4803300000     -0.8685500000
C              -3.7053900000      9.2624300000     -0.2568100000
S              -3.5372200000      8.8908200000      1.4735100000
C              -3.1164700000      7.2340900000      1.1123800000
C              -3.0916300000      7.0106300000     -0.2916500000
C              -3.4209900000      8.1251000000     -1.0518300000
C              -2.7812200000      6.0911900000      1.8468700000
C              -2.5042300000      4.9980200000      1.0022200000
S              -2.6490600000      5.3557600000     -0.7045500000
C              -2.1753700000      3.8380500000      1.7483200000
C              -2.2905800000      4.1801200000      3.1409400000
C              -2.6701000000      5.6736500000      3.3185500000
C              -1.7921000000      2.5379300000      1.3330900000
C              -1.5415000000      1.5987900000      2.3057400000
C              -1.6800100000      1.9334100000      3.6984900000
C              -2.0514700000      3.2374300000      4.1136900000
C              -1.0741400000      0.1310000000      2.1276400000
C              -1.0297700000     -0.3068200000      3.5961400000
C              -1.3903400000      0.7606300000      4.4421500000
S              -1.4099700000      0.3489100000      6.1432000000
C              -0.9349500000     -1.2963600000      5.7234100000
C              -0.7750300000     -1.4749000000      4.3225600000
S              -0.3022000000     -3.1140000000      3.9489000000
C              -0.3382100000     -3.5542900000      5.6710300000
C              -0.6954800000     -2.4411100000      6.4728000000
C               0.3247500000      0.1745700000      1.4581600000
C               0.4518700000      0.2553600000      0.0617800000
C               1.7033300000      0.3963800000     -0.5407900000
C               2.8798100000      0.4650200000      0.2230300000
C               2.7478000000      0.3899800000      1.6179700000
C               1.4970000000      0.2520600000      2.2243800000
C               4.2432300000      0.5909300000     -0.4326900000
C              -2.1122600000     -0.7574700000      1.3936200000
C              -1.7237900000     -1.9318700000      0.7299500000
C              -2.6707500000     -2.7790200000      0.1504700000
C              -4.0441300000     -2.4948500000      0.2156600000
C              -4.4293200000     -1.3257300000      0.8903800000
C              -3.4852300000     -0.4755900000      1.4704500000
C              -0.0929400000     -4.8189900000      6.2754800000
C               0.2580800000     -6.0800100000      5.8066200000
C               0.5718600000     -6.4368700000      4.3931300000
C               0.9605400000     -7.8654400000      4.3873200000
C               0.8800200000     -8.3735300000      5.7001900000
C               0.4286700000     -7.2857400000      6.6149800000
C               1.1981800000     -9.7168400000      5.9308100000
C               1.5874600000    -10.4850800000      4.8299800000
C               1.6729500000     -9.9897500000      3.5267100000
C               1.3497000000     -8.6484100000      3.3043600000
C              -4.0583100000      5.8749000000      3.9818700000
C              -4.3890600000      7.0840300000      4.6161800000
C              -5.6607400000      7.2913200000      5.1516600000
C              -6.6587900000      6.3056200000      5.0713400000
C              -6.3302600000      5.1066800000      4.4218900000
C              -5.0578800000      4.8960100000      3.8829100000
C              -1.5000500000      6.3656400000      4.0658100000
C              -1.4440300000      6.3699300000      5.4693100000
C              -0.3509800000      6.9154400000      6.1448700000
C               0.7335300000      7.4759100000      5.4506200000
C               0.6803100000      7.4563400000      4.0486600000
C              -0.4107700000      6.9088400000      3.3691700000
O               0.5301700000     -5.7021500000      3.4127200000
C               0.2037100000     -7.4513000000      7.9861500000
C              -0.2967100000     -6.4440700000      8.8701100000
N              -0.7067400000     -5.6836800000      9.6567900000
F               1.8974700000    -11.7821400000      5.0444600000
C              -5.0673400000     -3.4096300000     -0.4328400000
C              -8.0330800000      6.5394600000      5.6724400000
C               1.9009500000      8.1070200000      6.1876600000
C              -5.3801500000     12.8189000000     -2.5314300000
C              -5.6530800000     11.6112900000     -3.2490700000
N              -5.9207000000     10.6715900000     -3.8892700000
O              -3.8963800000     11.6378500000      1.9747400000
H              -4.3585600000     16.8077200000      2.3782700000
C               0.4359100000     -8.6708400000      8.6968800000
N               0.6028700000     -9.6227400000      9.3527500000
C              -5.7607700000     13.9696500000     -3.2908100000
N              -6.0843100000     14.8599500000     -3.9739000000
H              -3.9724200000     14.3789500000      2.9227500000
H              -5.2526200000     15.8111800000     -1.6922000000
H              -4.1781400000     10.3562600000     -1.9413300000
H              -3.4718300000      8.1461400000     -2.1309100000
H              -2.1452300000      3.4723800000      5.1639800000
H              -1.7018600000      2.3022800000      0.2825900000
H              -0.7785400000     -2.5063200000      7.5479500000
H              -0.2201500000     -4.7461600000      7.3462600000
H               1.1602300000    -10.1880700000      6.8991500000
H               1.4013200000     -8.2239000000      2.3097900000
H              -4.8568500000      3.9557600000      3.3851700000
H              -0.3488200000      6.9043700000      7.2302800000
H              -2.2589800000      5.9552100000      6.0491800000
H               1.4996200000      7.8732300000      3.4718500000
H              -0.3980000000      6.9078900000      2.2864900000
H              -7.0734300000      4.3209700000      4.3314700000
H              -5.8742100000      8.2371900000      5.6390500000
H              -3.6510100000      7.8699800000      4.7083900000
H              -0.4259400000      0.2020100000     -0.5700300000
H               1.7594900000      0.4536400000     -1.6232400000
H               1.4475200000      0.2117000000      3.3050600000
H               3.6306400000      0.4417000000      2.2471800000
H              -3.8345000000      0.4083700000      1.9893800000
H              -5.4815100000     -1.0725900000      0.9728300000
H              -2.3282200000     -3.6769500000     -0.3535600000
H              -0.6767800000     -2.1952000000      0.6565900000
H              -8.4872300000      7.4504800000      5.2712200000
H              -8.7106800000      5.7087900000      5.4673000000
H              -7.9691700000      6.6603700000      6.7586800000
H               2.8295800000      8.0198000000      5.6189600000
H               1.7195200000      9.1741000000      6.3580400000
H               2.0572100000      7.6415000000      7.1635000000
H              -4.7922100000     -4.4608300000     -0.3166500000
H              -6.0598600000     -3.2711600000      0.0009400000
H              -5.1453700000     -3.2085200000     -1.5071000000
H               4.1727800000      1.0593900000     -1.4167400000
H               4.9254000000      1.1871400000      0.1780500000
H               4.7017400000     -0.3949200000     -0.5688000000
H               1.9828400000    -10.6425800000      2.7212500000
F              -5.0163700000     17.6863900000      0.0328000000
                                                   
  eps=4.35875                                      
  epsinf=4.35875                                   
  RSolv=8.17                                       
                                                   

