%mem=1000MW
%nprocshared=40
%chk=IT-4Cl-TDDFT-scan-90-T1.chk
#p wB97XD/6-31g** td=(triplet,nstates=1) scf=(MaxCycle=20000) iop(3/107=0001100000,3/108=0001100000) SCRF=(PCM,Solvent=Generic,Read)

 NTO

0 1
C          0.57315       -0.27521        0.05262
C          0.46260       -0.15990        1.44571
C          1.64826       -0.19064        2.19916
C          2.89233       -0.31879        1.57970
C          3.00752       -0.42655        0.18360
C          1.82099       -0.40197       -0.56447
C         -0.92278       -0.13665        2.14524
C         -2.06461        0.29619        1.21520
C         -2.95012       -0.78909        0.98365
C         -2.52416       -1.95297        1.65687
C         -1.33304       -1.61258        2.39621
S         -4.31670       -0.38850       -0.04111
C         -3.70702        1.26300       -0.16758
C         -2.49508        1.44924        0.57221
C         -4.17616        2.38467       -0.82623
C         -3.33899        3.51371       -0.62295
S         -1.94920        3.10038        0.42223
C         -0.69686       -2.55327        3.16781
C         -1.23855       -3.86781        3.20184
C         -2.41696       -4.21446        2.44653
C         -3.06237       -3.27031        1.68673
C         -0.81691       -5.03140        3.88293
C         -1.64020       -6.14016        3.57140
C         -2.75987       -5.72017        2.60859
S          0.47713       -5.39487        5.00963
C         -0.08450       -7.06617        5.07091
C         -1.22744       -7.28789        4.24465
S         -1.73629       -8.95972        4.31849
C         -0.43203       -9.34281        5.46478
C          0.35403       -8.18930        5.74704
C         -3.45981        4.85983       -1.02842
C         -4.29293        5.48167       -1.96948
C         -5.00926        4.83415       -3.11103
C         -5.41934        5.94414       -4.01985
C         -5.04757        7.17673       -3.45769
C         -4.41493        6.92141       -2.13210
C         -6.05867        5.84731       -5.24628
C         -6.33200        7.02691       -5.95201
C         -5.95788        8.27089       -5.40613
C         -5.31897        8.35282       -4.15806
Cl        -7.13195        6.90593       -7.50346
Cl        -6.27198        9.76688       -6.25847
O         -5.20543        3.64477       -3.32213
C         -4.10370        7.90230       -1.18810
C         -4.18994        9.30867       -1.43645
N         -4.22588       10.46762       -1.57158
C         -0.97693        0.74469        3.42044
C         -0.26227        1.95218        3.49346
C         -0.36867        2.78698        4.60667
C         -1.19720        2.45707        5.69249
C         -1.92135        1.25888        5.60924
C         -1.81837        0.42078        4.49480
C         -2.64061       -6.37951        1.20917
C         -3.72656       -6.38086        0.31830
C         -3.59898       -6.89787       -0.97267
C         -2.38313       -7.42972       -1.43165
C         -1.29661       -7.41342       -0.54345
C         -1.42027       -6.89495        0.74782
C         -4.11928       -5.96624        3.31566
C         -4.79986       -7.18507        3.17021
C         -5.98022       -7.44048        3.87283
C         -6.52514       -6.49503        4.75516
C         -5.83357       -5.28259        4.90960
C         -4.65402       -5.02347        4.20838
C         -0.14405      -10.57394        6.09896
C         -0.66012      -11.86713        6.01571
C         -1.64743      -12.36949        5.02206
C         -1.65182      -13.85344        5.14870
C         -0.77831      -14.23542        6.18123
C         -0.21378      -13.00606        6.81065
C         -0.58920      -15.59388        6.44152
C         -1.28447      -16.53968        5.67138
C         -2.17239      -16.13821        4.65284
C         -2.35665      -14.77471        4.38893
C         -2.25415       -8.02975       -2.82036
C         -7.82503       -6.75994        5.49374
O         -2.31928      -11.71874        4.23235
C          0.52261      -12.98668        7.99470
C          0.93991      -14.16103        8.69904
N          1.31974      -15.07031        9.32446
Cl        -1.00801      -18.23252        6.01794
Cl        -3.05547      -17.30255        3.69178
C         -1.28568        3.36356        6.90731
C          4.36574       -0.54279       -0.48537
C          0.90112      -11.79732        8.69783
N          1.22812      -10.87853        9.33922
C         -3.73171        7.62886        0.16803
N         -3.45144        7.49287        1.29303
H         -6.33823        4.88490       -5.65256
H         -5.04893        9.32722       -3.78501
H         -2.76193        5.52498       -0.53539
H         -5.06931        2.43326       -1.42480
H          0.19290       -2.31413        3.73238
H         -3.95056       -3.50955        1.11982
H          1.19410       -8.21648        6.42599
H          0.68810      -10.46165        6.78125
H          0.08290      -15.95097        7.20443
H         -3.03086      -14.45038        3.60825
H         -2.40355       -0.48998        4.47617
H          3.78498       -0.33563        2.19724
H          1.61030       -0.10832        3.27819
H          1.86310       -0.48714       -1.64566
H         -0.31377       -0.27467       -0.56859
H         -2.57980        0.96786        6.42148
H          0.20340        3.70913        4.62610
H          0.39632        2.24571        2.68640
H         -4.68674       -5.98700        0.62748
H         -4.46408       -6.88655       -1.62827
H         -0.54924       -6.89572        1.39091
H         -0.33675       -7.81063       -0.85795
H         -4.15421       -4.07646        4.36862
H         -6.21479       -4.52655        5.58881
H         -6.47674       -8.39467        3.72886
H         -4.42061       -7.94573        2.50049
H         -1.50743        4.39437        6.61611
H         -2.06203        3.03528        7.60078
H         -0.33584        3.37801        7.45230
H          4.28809       -1.00456       -1.47194
H          4.82072        0.44521       -0.61800
H          5.05502       -1.14154        0.11522
H         -7.98769       -7.82877        5.64839
H         -7.83660       -6.27097        6.47065
H         -8.67954       -6.37564        4.92537
H         -2.98896       -7.60921       -3.51049
H         -1.25970       -7.85925       -3.23981
H         -2.41479       -9.11331       -2.78897

  eps=4.88617
  epsinf=4.88617
  RSolv=8.36
 
