%mem=1000MW
%nprocshared=40
#p wB97XD/6-31g** opt td=(triplet,nstates=2,root=1) scf=(MaxCycle=20000) iop(3/107=0016000000,3/108=0016000000) nosymm pop=esp SCRF=(PCM,Solvent=Generic,Read)

 Y6

0 1
C        -10.82912       -8.41653        0.63450
C        -10.95781       -7.16662        0.03214
C         -9.83094       -6.33905       -0.01091
C         -8.62127       -6.79165        0.54497
C         -8.48630       -8.04226        1.13740
C         -9.61346       -8.85647        1.17849
C         -9.61084       -4.98417       -0.58810
C         -7.58400       -5.73724        0.38921
C         -8.26211       -4.56978       -0.23781
F        -11.89610       -9.22840        0.69959
F         -9.55344      -10.07322        1.74339
O         -6.41508       -5.83272        0.74102
C        -10.52076       -4.30713       -1.40069
C        -10.20489       -3.13700       -2.16049
C        -11.86052       -4.74685       -1.63615
N        -12.96731       -5.04302       -1.85843
N        -10.01606       -2.20449       -2.83631
H        -11.92185       -6.89116       -0.36555
H         -7.54760       -8.37970        1.55584
C         -7.77886       -3.25881       -0.30702
C         -6.51644       -2.66283       -0.10189
H         -8.52997       -2.51924       -0.55288
S         -4.96880       -3.51827        0.07883
C         -4.10209       -2.00515        0.08229
C         -6.33582       -1.23494       -0.11215
C         -4.99156       -0.90184       -0.00984
C         -7.46345       -0.23872       -0.22008
H         -7.94416       -0.28893       -1.19906
H         -7.09875        0.77894       -0.08444
H         -8.22545       -0.41785        0.54214
S         -4.15577        0.66822        0.00612
C         -2.63004       -0.17453        0.14131
C         -2.77241       -1.59248        0.16420
C         -1.27914        0.12245        0.25920
C         -0.57964       -1.14459        0.30011
N         -1.52614       -2.17885        0.28296
C         -0.54818        1.35649        0.39400
C          0.88486        1.31456        0.58572
C          1.57052        0.04962        0.51406
C          0.82378       -1.16977        0.28551
C         -1.35224       -3.52431        0.85264
H         -2.11809       -3.69372        1.60878
H         -0.38691       -3.58667        1.34539
H         -1.42694       -4.29305        0.08470
N         -1.05809        2.58091        0.41614
N          1.43890        2.50771        0.75684
S          0.21025        3.61831        0.67218
C          2.91187       -0.30705        0.54625
C          3.00068       -1.70611        0.29091
N          1.73130       -2.22445        0.11670
C          1.49233       -3.46528       -0.63579
H          2.24950       -3.56082       -1.41313
H          0.52538       -3.40888       -1.12639
H          1.53106       -4.33822        0.01457
C          4.31741       -2.16446        0.23674
C          5.24876       -1.11953        0.47254
S          4.47130        0.45599        0.75084
S          5.12506       -3.69400        0.01436
C          6.71305       -2.90810        0.16820
C          6.58378       -1.50240        0.44800
C          7.74614       -0.56747        0.67375
H          8.28477       -0.37641       -0.25682
H          8.45339       -0.97508        1.39922
H          7.40270        0.39209        1.05963
C          7.96971       -3.51804       -0.03307
C          8.39654       -4.83591       -0.22691
H          8.76888       -2.78836       -0.01591
C          7.60421       -6.07425        0.00393
C          9.76480       -5.23996       -0.51012
C          8.57344       -7.20178        0.00027
C          9.86087       -6.70696       -0.27283
C          8.31685       -8.54921        0.22703
C          9.39831       -9.42296        0.18850
C         10.69094       -8.94336       -0.07033
C         10.94218       -7.59371       -0.30889
C         10.79623       -4.44767       -1.01493
C         10.62325       -3.11257       -1.49825
C         12.14040       -4.90348       -1.18724
H          7.31902       -8.91641        0.42590
H         11.96039       -7.29421       -0.50101
O          6.39787       -6.17577        0.18895
F          9.21915      -10.73652        0.40164
F         11.71091       -9.81590       -0.08864
N         10.55680       -2.03653       -1.94500
N         13.25688       -5.20743       -1.33949
                                                  
  eps=3.36                                       
  epsinf=3.36                                    
  RSolv=7.28
 
