%mem=800MW
%nprocshared=32
%chk=Y6-HSO-scan-65-S1fromT1.chk
%rwf=Y6-HSO-scan-65-S1fromT1.rwf
#p wB97XD/6-31g** td(50-50,nstates=5) 6D 10F nosymm GFInput scf=(MaxCycle=20000) iop(3/107=0016000000,3/108=0016000000) SCRF=(PCM,Solvent=Generic,Read)

 HSO

0 1
C              13.8711600000      2.4335800000     16.9602800000
C              12.5812000000      2.0295300000     16.6006600000
C              11.9769900000      2.5864300000     15.4597200000
C              12.6137200000      3.5220600000     14.6519900000
C              13.8961200000      3.9175100000     15.0178700000
C              14.5077600000      3.3802900000     16.1602800000
C              10.6092700000      2.0236400000     15.3041900000
C              10.3823300000      1.1375900000     16.4787000000
C              11.6414300000      1.0432200000     17.2016200000
C               9.1574100000      0.6358400000     16.9290500000
C               7.8566400000      0.5701400000     16.3844600000
C               6.7309300000      0.1110600000     17.1542900000
C               5.5864600000      0.0390000000     16.3705300000
C               5.7588300000      0.4261100000     15.0151700000
S               7.4002700000      0.9259600000     14.7035700000
S               3.9238300000     -0.4707000000     16.7427700000
C               3.4825300000     -0.1529400000     15.0816600000
C               4.5716900000      0.3149900000     14.2903400000
C               2.3533700000     -0.1956700000     14.2752200000
C               2.7766500000      0.2067100000     12.9507000000
N               4.1344200000      0.5539700000     13.0000000000
C               0.9658100000     -0.4833500000     14.5337000000
C               0.0014500000     -0.3492100000     13.4637600000
C               0.4615700000     -0.0505800000     12.1313600000
C               1.8740400000      0.1424400000     11.8780000000
C              -0.1775500000      0.0435200000     10.9024300000
C               0.8189800000      0.2375000000      9.9019500000
N               2.0663500000      0.2805500000     10.4962800000
C               0.2899600000      0.2874100000      8.6120600000
C              -1.1231100000      0.1508600000      8.6169300000
S              -1.7967100000     -0.0553200000     10.2503700000
C              -1.7259100000      0.2107100000      7.3673100000
C              -0.7462500000      0.3943000000      6.3284100000
S               0.8965200000      0.5354500000      6.9954000000
N              -1.2503000000     -0.5815600000     13.8365800000
S              -1.2029800000     -0.9550000000     15.4512500000
N               0.4309600000     -0.8214100000     15.6997700000
C              -1.1009500000      0.3927200000      4.9623300000
C              -0.4109600000      0.6331600000      3.7695300000
C              -0.9776700000      0.5215600000      2.4341100000
C              -0.0398500000      1.1895400000      1.4888600000
C               1.1150400000      1.5687400000      2.1952900000
C               0.9520800000      1.2125300000      3.6289300000
C               2.2022200000      2.1858100000      1.5866300000
C               2.1126800000      2.4407100000      0.2223200000
C               0.9619500000      2.0808700000     -0.4945100000
C              -0.1199400000      1.4504500000      0.1166300000
F               3.1252500000      3.0383700000     -0.4261400000
F               0.9086700000      2.3539900000     -1.8076600000
C              -2.1350200000     -0.1580700000      2.0524900000
C              -2.9000500000     -1.0047500000      2.9144700000
N              -3.5589900000     -1.7372200000      3.5400100000
O               1.7887200000      1.3937700000      4.5048600000
C              -3.2102400000      0.0935300000      7.1254700000
C               3.2920300000     -0.0530100000      9.7538800000
C               4.8140100000      1.5138300000     12.1149300000
C               6.7916600000     -0.2443900000     18.6192400000
C              11.9763900000      0.1364500000     18.2069100000
C              11.1568400000     -0.9682000000     18.6004700000
N              10.5631600000     -1.9091200000     18.9525400000
O               9.8366200000      2.2766800000     14.3886600000
F              14.5634800000      4.8226700000     14.2842600000
F              15.7415500000      3.7957800000     16.4869100000
C              13.2203100000      0.1497200000     18.9117400000
N              14.2087100000      0.1124500000     19.5311400000
C              -2.6641900000     -0.1470000000      0.7243100000
N              -3.1579000000     -0.1702100000     -0.3329800000
H              14.3972100000      2.0650000000     17.8267200000
H              12.1395800000      3.9357500000     13.7721400000
H               9.1869600000      0.2220800000     17.9285500000
H               7.3498700000     -1.1694000000     18.7786000000
H               5.7918100000     -0.3891600000     19.0277100000
H               7.2697900000      0.5465200000     19.2011300000
H               5.2057200000      2.3368800000     12.7119700000
H               4.0960900000      1.9296300000     11.4149800000
H               5.6302100000      1.0398100000     11.5711100000
H               3.0628700000     -0.8163900000      9.0112400000
H               4.0253500000     -0.4695000000     10.4373500000
H               3.7045900000      0.8235200000      9.2560800000
H              -3.4546600000     -0.8418000000      6.6179200000
H              -3.5815600000      0.9190400000      6.5141600000
H              -3.7604900000      0.1112100000      8.0657600000
H              -2.1528700000      0.1751700000      4.8305300000
H               3.0883800000      2.4626600000      2.1419400000
H              -0.9725600000      1.2002300000     -0.4948500000

  eps=3.36
  epsinf=3.36
  RSolv=7.28
 
