%mem=800MW
%nprocshared=32
%chk=IT-4Cl-HSO-scan-170-S1fromT2.chk
%rwf=IT-4Cl-HSO-scan-170-S1fromT2.rwf
#p wB97XD/6-31g** td(50-50,nstates=5) 6D 10F nosymm GFInput scf=(MaxCycle=20000) iop(3/107=0001100000,3/108=0001100000) SCRF=(PCM,Solvent=Generic,Read)

 HSO

0 1
C              -0.1979300000     -0.2880100000     -0.1836200000
C              -0.1554200000     -0.1387400000      1.2103700000
C               1.1078900000     -0.0596400000      1.8192600000
C               2.2783500000     -0.1070500000      1.0590400000
C               2.2388400000     -0.2416000000     -0.3386400000
C               0.9753000000     -0.3349100000     -0.9414100000
C              -1.4524900000     -0.1888700000      2.0591600000
C              -2.7159300000      0.1849000000      1.2689000000
C              -3.5843200000     -0.9054900000      1.1829800000
C              -3.0171500000     -2.0724500000      1.8174300000
C              -1.7611000000     -1.6792600000      2.3579800000
S              -5.0856400000     -0.5772100000      0.3560000000
C              -4.5512200000      1.0818700000      0.0950100000
C              -3.2649200000      1.3202700000      0.6499200000
C              -5.1369600000      2.1712700000     -0.5409300000
C              -4.3024500000      3.3143800000     -0.5110800000
S              -2.7781900000      2.9663700000      0.3575600000
C              -0.9657300000     -2.6014900000      3.0207400000
C              -1.4462000000     -3.9186700000      3.1349700000
C              -2.7030000000     -4.3119200000      2.5951300000
C              -3.4973000000     -3.3894900000      1.9308400000
C              -0.8628300000     -5.0923500000      3.7381600000
C              -1.6878400000     -6.2085600000      3.5694300000
C              -2.9752300000     -5.8218000000      2.8256800000
S               0.6152200000     -5.4066800000      4.6131100000
C               0.1338600000     -7.0959500000      4.7636900000
C              -1.1244700000     -7.3522500000      4.1576600000
S              -1.5646900000     -9.0380200000      4.3160800000
C              -0.0639400000     -9.3858300000      5.2024000000
C               0.7266300000     -8.2080800000      5.3426300000
C              -4.4707400000      4.6359800000     -0.9866500000
C              -5.4402000000      5.2336300000     -1.8041400000
C              -6.4409800000      4.5490600000     -2.6892200000
C              -6.9742200000      5.6012100000     -3.5974200000
C              -6.4037200000      6.8424600000     -3.2664500000
C              -5.5094900000      6.6562100000     -2.0909900000
C              -7.8900500000      5.4496100000     -4.6268600000
C              -8.2452300000      6.5788400000     -5.3766500000
C              -7.6696400000      7.8283100000     -5.0704900000
C              -6.7524400000      7.9680600000     -4.0158300000
Cl             -9.3994900000      6.3892900000     -6.6776700000
Cl             -8.0740400000      9.2603300000     -5.9917600000
O              -6.7626100000      3.3697200000     -2.7149200000
C              -4.9316000000      7.6957600000     -1.3468100000
C              -4.9654700000      9.0709000000     -1.7349300000
N              -4.9433100000     10.2091700000     -1.9951900000
C              -1.4146700000      0.6926300000      3.3372500000
C              -0.7896900000      1.9507700000      3.3259900000
C              -0.8253200000      2.7843400000      4.4454000000
C              -1.4915500000      2.4018700000      5.6214700000
C              -2.1251300000      1.1501200000      5.6250100000
C              -2.0912100000      0.3129900000      4.5060000000
C              -3.1117300000     -6.4965200000      1.4354400000
C              -4.3528400000     -6.5561100000      0.7810300000
C              -4.4650700000     -7.0856300000     -0.5063500000
C              -3.3440100000     -7.5737400000     -1.1969200000
C              -2.1031900000     -7.4990000000     -0.5455800000
C              -1.9871900000     -6.9683200000      0.7418700000
C              -4.1747000000     -6.0842000000      3.7773500000
C              -4.8166100000     -7.3338400000      3.8014300000
C              -5.8404000000     -7.6021200000      4.7113600000
C              -6.2653400000     -6.6384900000      5.6410700000
C              -5.6145400000     -5.3960800000      5.6222300000
C              -4.5880000000     -5.1244300000      4.7128300000
C               0.3776200000    -10.6103900000      5.7593000000
C              -0.1210900000    -11.9166200000      5.7897000000
C              -1.3127300000    -12.4274700000      5.0452400000
C              -1.3089900000    -13.9046700000      5.2071600000
C              -0.2283400000    -14.2768300000      6.0267500000
C               0.4913000000    -13.0477400000      6.4650300000
C              -0.0201900000    -15.6328700000      6.2897000000
C              -0.8963200000    -16.5797100000      5.7343700000
C              -1.9811600000    -16.1862900000      4.9257400000
C              -2.1885700000    -14.8261900000      4.6605300000
C              -3.4747800000     -8.1856200000     -2.5807200000
C              -7.3937900000     -6.9344000000      6.6131000000
O              -2.1331200000    -11.7785000000      4.4118500000
C               1.5232100000    -13.0232600000      7.4179600000
C               2.1103500000    -14.1936000000      7.9905600000
N               2.6445800000    -15.1014100000      8.4953300000
Cl             -0.5925100000    -18.2681400000      6.0811800000
Cl             -3.0863300000    -17.3525500000      4.2329500000
C              -1.5015700000      3.3020600000      6.8443900000
C               3.5140200000     -0.2560500000     -1.1630900000
C               2.0852500000    -11.8365900000      7.9840100000
N               2.5835400000    -10.9190400000      8.5079600000
C              -4.3045900000      7.5253000000     -0.0719600000
N              -3.8044200000      7.4735400000      0.9821000000
H              -8.3219000000      4.4830100000     -4.8470100000
H              -6.3371600000      8.9442400000     -3.8262200000
H              -3.6771900000      5.3032800000     -0.6761300000
H              -6.1024000000      2.1788500000     -1.0166500000
H              -0.0070400000     -2.3238000000      3.4348600000
H              -4.4517900000     -3.6686400000      1.5080800000
H               1.6779000000     -8.2088400000      5.8547000000
H               1.3293700000    -10.4765900000      6.2542000000
H               0.7936900000    -15.9892600000      6.8993200000
H              -3.0142600000    -14.5046300000      4.0405100000
H              -2.6027600000     -0.6395000000      4.5576600000
H               3.2350100000     -0.0353300000      1.5668800000
H               1.1904900000      0.0480000000      2.8935100000
H               0.8966800000     -0.4474700000     -2.0179700000
H              -1.1486900000     -0.3769300000     -0.6941600000
H              -2.6554100000      0.8160100000      6.5111200000
H              -0.3270800000      3.7472100000      4.3960000000
H              -0.2579100000      2.2865200000      2.4451800000
H              -5.2472700000     -6.1966800000      1.2741300000
H              -5.4435600000     -7.1193200000     -0.9747900000
H              -1.0059900000     -6.9224200000      1.1972300000
H              -1.2091300000     -7.8597000000     -1.0441900000
H              -4.1112700000     -4.1533100000      4.7479900000
H              -5.9063000000     -4.6236800000      6.3267000000
H              -6.3125700000     -8.5791900000      4.6931000000
H              -4.5303700000     -8.1064000000      3.0999200000
H              -1.6873200000      4.3440600000      6.5707800000
H              -2.2681300000      2.9992800000      7.5603200000
H              -0.5352800000      3.2679600000      7.3595500000
H               3.3604400000     -0.7342800000     -2.1327300000
H               3.8662200000      0.7645300000     -1.3504800000
H               4.3177500000     -0.7875800000     -0.6471600000
H              -7.2490200000     -7.9003900000      7.1049900000
H              -7.4686300000     -6.1692900000      7.3881100000
H              -8.3568500000     -6.9763800000      6.0929100000
H              -4.3048200000     -7.7442200000     -3.1370800000
H              -2.5627000000     -8.0486500000     -3.1660500000
H              -3.6614600000     -9.2631000000     -2.5105100000

  eps=4.88617
  epsinf=4.88617
  RSolv=8.36
 
