%mem=800MW
%nprocshared=32
%chk=IT-4Cl-HSO-scan-130-T2fromS1.chk
%rwf=IT-4Cl-HSO-scan-130-T2fromS1.rwf
#p wB97XD/6-31g** td(50-50,nstates=5) 6D 10F nosymm GFInput scf=(MaxCycle=20000) iop(3/107=0001100000,3/108=0001100000) SCRF=(PCM,Solvent=Generic,Read)

 HSO

0 1
C              -0.4909500000     -0.2085200000     -0.3703300000
C              -0.3469900000     -0.1026500000      1.0209800000
C               0.9558500000     -0.0479600000      1.5426000000
C               2.0689200000     -0.0774800000      0.7002500000
C               1.9292900000     -0.1673100000     -0.6943600000
C               0.6257700000     -0.2354200000     -1.2098100000
C              -1.5772400000     -0.1740700000      1.9631200000
C              -2.8950000000      0.2095600000      1.2788500000
C              -3.7643400000     -0.9035900000      1.2193700000
C              -3.1590800000     -2.0581700000      1.7871400000
C              -1.8604900000     -1.6696000000      2.2518500000
S              -5.3129200000     -0.5694200000      0.4924000000
C              -4.8121700000      1.1010800000      0.2590500000
C              -3.4953700000      1.3469200000      0.7407300000
C              -5.4471300000      2.2174300000     -0.2964200000
C              -4.6281600000      3.3468000000     -0.2679400000
S              -3.0674300000      3.0225100000      0.4877900000
C              -1.0297700000     -2.5962600000      2.8511300000
C              -1.5121700000     -3.9125700000      2.9955300000
C              -2.8135300000     -4.3007300000      2.5407700000
C              -3.6388800000     -3.3822600000      1.9299100000
C              -0.9051300000     -5.0798100000      3.5703100000
C              -1.7492900000     -6.1840000000      3.4730400000
C              -3.0803600000     -5.8037200000      2.8120600000
S               0.6227300000     -5.3946500000      4.3551200000
C               0.1332100000     -7.0690000000      4.5660500000
C              -1.1570400000     -7.3290600000      4.0502700000
S              -1.6067200000     -8.9930300000      4.2762400000
C              -0.0582200000     -9.3348300000      5.0718000000
C               0.7486900000     -8.1854700000      5.1375900000
C              -4.9995900000      4.7217700000     -0.6385900000
C              -4.7894300000      5.3270600000     -1.8524700000
C              -4.1068500000      4.6198600000     -3.0009200000
C              -4.0069000000      5.6153200000     -4.0965900000
C              -4.6092200000      6.8207400000     -3.6660600000
C              -5.1096000000      6.6716000000     -2.2889700000
C              -3.4486600000      5.4546500000     -5.3532000000
C              -3.4784500000      6.5356300000     -6.2474200000
C              -4.0801700000      7.7420100000     -5.8437700000
C              -4.6463200000      7.8941200000     -4.5687400000
Cl             -2.7625600000      6.3330300000     -7.8396900000
Cl             -4.1508300000      9.1214100000     -6.9293200000
O              -3.7168300000      3.4611800000     -3.0264600000
C              -5.7898100000      7.6799200000     -1.5404200000
C              -5.9436100000      9.0255900000     -1.9710000000
N              -6.0968700000     10.1495900000     -2.2660200000
C              -1.4498300000      0.6793300000      3.2549000000
C              -0.8192400000      1.9343200000      3.2289400000
C              -0.7743700000      2.7401000000      4.3680000000
C              -1.3589200000      2.3310200000      5.5782300000
C              -1.9986000000      1.0824600000      5.5960900000
C              -2.0482500000      0.2739000000      4.4572300000
C              -3.3115500000     -6.4995100000      1.4453800000
C              -4.5913500000     -6.5522000000      0.8697100000
C              -4.7870400000     -7.0993700000     -0.4002000000
C              -3.7159300000     -7.6124000000     -1.1498200000
C              -2.4369300000     -7.5453600000     -0.5761200000
C              -2.2369000000     -6.9965400000      0.6929900000
C              -4.2117600000     -6.0380600000      3.8516800000
C              -4.8765200000     -7.2731100000      3.9305700000
C              -5.8322400000     -7.5146600000      4.9193500000
C              -6.1608100000     -6.5387400000      5.8746800000
C              -5.4848300000     -5.3116900000      5.8006200000
C              -4.5266500000     -5.0667100000      4.8133000000
C               0.4041200000    -10.5630700000      5.6421400000
C              -0.0986500000    -11.8428500000      5.7297900000
C              -1.3322600000    -12.3649300000      5.0738200000
C              -1.2875700000    -13.8433100000      5.2194200000
C              -0.1505500000    -14.2126200000      5.9589300000
C               0.5682000000    -12.9815200000      6.3883400000
C               0.1101800000    -15.5694100000      6.1715200000
C              -0.7775600000    -16.5229000000      5.6548900000
C              -1.9272800000    -16.1330900000      4.9320400000
C              -2.1814300000    -14.7757100000      4.7101400000
C              -3.9371200000     -8.2421200000     -2.5135800000
C              -7.2195900000     -6.8024200000      6.9306900000
O              -2.2052100000    -11.7263100000      4.5042800000
C               1.5980700000    -12.9428000000      7.3127800000
C               2.1824100000    -14.1069000000      7.9135500000
N               2.7084400000    -15.0039300000      8.4405800000
Cl             -0.4146600000    -18.2095400000      5.9325800000
Cl             -3.0490200000    -17.3086700000      4.2930400000
C              -1.2804600000      3.2003900000      6.8203400000
C               3.1420400000     -0.1572800000     -1.6077400000
C               2.1785800000    -11.7388400000      7.8350400000
N               2.6870700000    -10.8069000000      8.3173500000
C              -6.4020300000      7.4580800000     -0.2779400000
N              -6.9329300000      7.3346000000      0.7603900000
H              -2.9978300000      4.5147100000     -5.6416100000
H              -5.0985700000      8.8399200000     -4.3184200000
H              -5.4761700000      5.2686900000      0.1655500000
H              -6.4433900000      2.2332700000     -0.7120000000
H              -0.0453200000     -2.3268600000      3.2045700000
H              -4.6221600000     -3.6526300000      1.5734800000
H               1.7291200000     -8.1842300000      5.5915700000
H               1.3828500000    -10.4221000000      6.0810000000
H               0.9775000000    -15.9179500000      6.7074700000
H              -3.0522600000    -14.4610200000      4.1518800000
H              -2.5635100000     -0.6756900000      4.5226100000
H               3.0589400000     -0.0250900000      1.1417000000
H               1.1147600000      0.0285900000      2.6108000000
H               0.4714200000     -0.3108900000     -2.2811200000
H              -1.4741600000     -0.2750700000     -0.8190500000
H              -2.4693500000      0.7292300000      6.5077800000
H              -0.2758000000      3.7019400000      4.3072000000
H              -0.3480100000      2.2908900000      2.3224500000
H              -5.4500800000     -6.1743700000      1.4102900000
H              -5.7921300000     -7.1267600000     -0.8088700000
H              -1.2286700000     -6.9558400000      1.0857100000
H              -1.5792400000     -7.9247700000     -1.1221200000
H              -4.0284100000     -4.1059300000      4.8076000000
H              -5.7033100000     -4.5310500000      6.5221000000
H              -6.3262900000     -8.4806300000      4.9431100000
H              -4.6622700000     -8.0540500000      3.2127900000
H              -1.4270200000      4.2559000000      6.5783100000
H              -2.0325400000      2.9149700000      7.5583000000
H              -0.2979500000      3.1074900000      7.2962600000
H               2.9402100000     -0.6712300000     -2.5499600000
H               3.4320300000      0.8712300000     -1.8500300000
H               4.0027600000     -0.6372700000     -1.1361300000
H              -7.0630900000     -7.7699600000      7.4157500000
H              -7.2169700000     -6.0326100000      7.7043300000
H              -8.2187400000     -6.8216800000      6.4825400000
H              -4.8068100000     -7.8131800000     -3.0161500000
H              -3.0690800000     -8.1072000000     -3.1628100000
H              -4.1110700000     -9.3196400000     -2.4169800000

  eps=4.88617
  epsinf=4.88617
  RSolv=8.36
 
