%mem=1000MW
%nprocshared=40
#p wB97XD/6-31g** nosymm pop=esp opt td=(nstates=2,root=1) scf=(MaxCycle=20000) iop(3/107=0001100000,3/108=0001100000) SCRF=(PCM,Solvent=Generic,Read)

 IT-4Cl opt-TDdft

0 1
C         -0.09802       -0.05012       -0.12250
C         -0.03924       -0.03347        1.27857
C          1.22940       -0.06613        1.88065
C          2.39167       -0.09587        1.10757
C          2.33752       -0.09645       -0.29598
C          1.06769       -0.07575       -0.89251
C         -1.32754       -0.09976        2.14037
C         -2.58995        0.31793        1.37766
C         -3.46764       -0.78061        1.23167
C         -2.91806       -1.95582        1.81358
C         -1.65366       -1.59504        2.38334
S         -4.95706       -0.40618        0.40679
C         -4.41872        1.26133        0.24905
C         -3.13508        1.47592        0.82503
C         -4.99869        2.39984       -0.32090
C         -4.16665        3.51475       -0.21344
S         -2.66481        3.14896        0.63744
C         -0.88515       -2.54500        3.02725
C         -1.39077       -3.85840        3.10128
C         -2.65500       -4.22086        2.53464
C         -3.42179       -3.27661        1.88764
C         -0.84123       -5.04547        3.69245
C         -1.68485       -6.13778        3.50132
C         -2.95091       -5.72931        2.73800
S          0.61580       -5.39490        4.58912
C          0.09404       -7.06712        4.72341
C         -1.15296       -7.30145        4.10014
S         -1.63711       -8.96372        4.25625
C         -0.16088       -9.33985        5.16563
C          0.65019       -8.20185        5.31931
C         -4.49499        4.90161       -0.57967
C         -4.21355        5.52414       -1.77023
C         -3.48129        4.82822       -2.89500
C         -3.33542        5.83424       -3.97614
C         -3.95012        7.03741       -3.55720
C         -4.50458        6.87662       -2.20237
C         -2.73339        5.68326       -5.21375
C         -2.72946        6.77211       -6.09899
C         -3.34169        7.97675       -5.70607
C         -3.95177        8.11912       -4.45040
Cl        -1.96191        6.58070       -7.66844
Cl        -3.37164        9.36596       -6.78094
O         -3.08922        3.67012       -2.91481
C         -5.20684        7.88201       -1.47046
C         -5.33429        9.23288       -1.89321
N         -5.46761       10.36081       -2.18286
C         -1.26848        0.73062        3.45134
C         -0.57848        1.95285        3.50098
C         -0.59333        2.74001        4.65344
C         -1.30193        2.34586        5.80107
C         -2.00041        1.13067        5.74216
C         -1.98954        0.34019        4.58957
C         -3.06347       -6.38258        1.33488
C         -4.28220       -6.37801        0.63701
C         -4.37284       -6.88948       -0.65898
C         -3.25176       -7.42390       -1.31473
C         -2.03306       -7.41344       -0.61931
C         -1.93793       -6.89982        0.67694
C         -4.17487       -5.99021        3.65945
C         -4.86165       -7.21324        3.61896
C         -5.91137       -7.48108        4.50161
C         -6.31600       -6.54335        5.46357
C         -5.61679       -5.32607        5.51046
C         -4.56651       -5.05550        4.63122
C          0.24035      -10.58425        5.74695
C         -0.28244      -11.85866        5.76965
C         -1.46208      -12.35536        5.00372
C         -1.43829      -13.83725        5.11875
C         -0.36534      -14.23210        5.93698
C          0.32029      -13.01672        6.45498
C         -0.12950      -15.59512        6.13781
C         -0.97987      -16.53036        5.53250
C         -2.06749      -16.11557        4.73166
C         -2.29508      -14.75164        4.52075
C         -3.36026       -8.01681       -2.70841
C         -7.48042       -6.81903        6.39796
O         -2.28096      -11.69691        4.37916
C          1.26479      -13.00488        7.46708
C          1.79744      -14.18599        8.08253
N          2.27907      -15.09784        8.62627
Cl        -0.64922      -18.22534        5.79898
Cl        -3.14457      -17.26819        3.98343
C         -1.29136        3.19919        7.05674
C          3.60330       -0.08655       -1.13427
C          1.79061      -11.81607        8.07514
N          2.24783      -10.89840        8.63055
C         -5.86671        7.65298       -0.23347
N         -6.43655        7.52445        0.78340
H         -2.27548        4.74448       -5.49476
H         -4.41085        9.06357       -4.20752
H         -5.01201        5.44052        0.20459
H         -5.96549        2.44133       -0.79940
H          0.07021       -2.29686        3.46532
H         -4.37753       -3.52470        1.44994
H          1.59194       -8.22098        5.84885
H          1.18415      -10.46510        6.26230
H          0.69132      -15.96161        6.73197
H         -3.11746      -14.41841        3.90288
H         -2.55409       -0.58372        4.59218
H          3.35319       -0.11519        1.61052
H          1.32451       -0.05843        2.95936
H          0.97755       -0.07858       -1.97384
H         -1.05222       -0.04377       -0.63375
H         -2.56614        0.79035        6.60341
H         -0.04545        3.67672        4.65341
H         -0.01594        2.29720        2.64315
H         -5.17687       -5.98330        1.10186
H         -5.33463       -6.87186       -1.16138
H         -0.97154       -6.90423        1.16500
H         -1.13965       -7.81112       -1.08998
H         -4.05453       -4.10539        4.71634
H         -5.89206       -4.57452        6.24338
H         -6.41815       -8.43815        4.43248
H         -4.59317       -7.96614        2.88991
H         -1.46363        4.25300        6.82223
H         -2.05768        2.88171        7.76622
H         -0.32203        3.13233        7.56246
H          3.44803       -0.57078       -2.10089
H          3.92698        0.94170       -1.33041
H          4.42506       -0.59709       -0.62677
H         -7.62268       -7.88992        6.55719
H         -7.33146       -6.34776        7.37234
H         -8.41253       -6.42114        5.98116
H         -4.17371       -7.56014       -3.27629
H         -2.43453       -7.88216       -3.27254
H         -3.55870       -9.09310       -2.65512

  eps=4.88617
  epsinf=4.88617
  RSolv=8.36
 
