%mem=1000MW
%nprocshared=40
#p wB97XD/6-31g** nosymm pop=esp opt td=(nstates=2,root=1) scf=(MaxCycle=20000) iop(3/107=0001100000,3/108=0001100000) SCRF=(PCM,Solvent=Generic,Read)

 IT-4Cl opt-TDdft

0 1
C               0.0000000000      0.0000000000      0.0000000000
C               0.0000000000      0.0000000000      1.3994180000
C               1.2397890000      0.0000000000      2.0551600000
C               2.4315910000      0.0054220000      1.3338410000
C               2.4346600000      0.0147660000     -0.0669460000
C               1.1960270000      0.0090090000     -0.7172230000
C              -1.3122240000     -0.1043020000      2.2046080000
C              -2.5499500000      0.3035220000      1.4030040000
C              -3.4086890000     -0.7707840000      1.2437670000
C              -2.8704920000     -1.9634130000      1.8535480000
C              -1.6273900000     -1.6002220000      2.4373080000
S              -4.8771530000     -0.4030850000      0.3752840000
C              -4.3299710000      1.2623780000      0.2076500000
C              -3.0728580000      1.4753510000      0.8154890000
C              -4.8618970000      2.4009360000     -0.3908140000
C              -4.0267260000      3.5245560000     -0.2606770000
S              -2.5437780000      3.1209450000      0.6404310000
C              -0.8541890000     -2.5513910000      3.0827690000
C              -1.3493030000     -3.8622080000      3.1504550000
C              -2.5972200000     -4.2230640000      2.5754840000
C              -3.3621600000     -3.2757250000      1.9148110000
C              -0.7963830000     -5.0622980000      3.7319450000
C              -1.6307120000     -6.1479840000      3.5263410000
C              -2.8949140000     -5.7271450000      2.7749250000
S               0.6611520000     -5.4259560000      4.6204490000
C               0.1469670000     -7.1071120000      4.7248350000
C              -1.0994300000     -7.3243590000      4.0969080000
S              -1.5920450000     -8.9870990000      4.2012620000
C              -0.1052030000     -9.3936750000      5.0949010000
C               0.7009170000     -8.2567030000      5.2806900000
C              -4.4307610000      4.7649960000     -0.8164170000
C              -4.1145740000      5.4503160000     -1.9725380000
C              -3.1702860000      4.9918650000     -3.0156320000
C              -3.1496480000      6.0435530000     -4.0583630000
C              -4.0179650000      7.0855810000     -3.6942200000
C              -4.6465950000      6.7527330000     -2.3875510000
C              -2.4129880000      6.0582040000     -5.2299980000
C              -2.5429210000      7.1572770000     -6.0808550000
C              -3.4084910000      8.2129650000     -5.7332480000
C              -4.1477530000      8.1854200000     -4.5448620000
Cl             -1.6226130000      7.1890090000     -7.5582490000
Cl             -3.5895810000      9.5968280000     -6.7753260000
O              -2.5202200000      3.9536050000     -3.0396440000
C              -5.5588980000      7.5596780000     -1.7307600000
C              -6.0032200000      8.8180300000     -2.2414960000
N              -6.3890940000      9.8481960000     -2.6251690000
C              -1.2820710000      0.7233840000      3.5091060000
C              -0.7328140000      2.0145910000      3.5083570000
C              -0.7747190000      2.8127840000      4.6488270000
C              -1.3630650000      2.3560580000      5.8353720000
C              -1.9150910000      1.0708830000      5.8308240000
C              -1.8785230000      0.2680890000      4.6902940000
C              -3.0332020000     -6.3892300000      1.3883220000
C              -4.2657410000     -6.3879190000      0.7190900000
C              -4.3826210000     -6.9070850000     -0.5683170000
C              -3.2781150000     -7.4504040000     -1.2370070000
C              -2.0492450000     -7.4446170000     -0.5683980000
C              -1.9260140000     -6.9230260000      0.7192360000
C              -4.1132010000     -5.9902330000      3.6888040000
C              -4.6957700000     -7.2659000000      3.7340860000
C              -5.7366270000     -7.5482850000      4.6154650000
C              -6.2396300000     -6.5715100000      5.4845430000
C              -5.6519160000     -5.3029220000      5.4418740000
C              -4.6075570000     -5.0152060000      4.5627870000
C               0.3223970000    -10.6454410000      5.6057610000
C              -0.2100980000    -11.9192720000      5.6022780000
C              -1.5009470000    -12.3124560000      4.9948310000
C              -1.6585740000    -13.7645180000      5.2408670000
C              -0.5465500000    -14.2457590000      5.9509490000
C               0.3915010000    -13.1175650000      6.1969580000
C              -0.4951180000    -15.5996060000      6.2894040000
C              -1.5539830000    -16.4328730000      5.9099510000
C              -2.6605920000    -15.9309070000      5.1972560000
C              -2.7115540000    -14.5774990000      4.8588280000
C              -3.4167100000     -8.0476870000     -2.6165880000
C              -7.3902590000     -6.8735450000      6.4141430000
O              -2.3018640000    -11.6005660000      4.4008040000
C               1.5964960000    -13.2346130000      6.8671340000
C               2.0775760000    -14.4673410000      7.4062780000
N               2.5027560000    -15.4529350000      7.8592350000
Cl             -1.4639550000    -18.1168960000      6.3456110000
Cl             -3.9783950000    -16.9651820000      4.7237120000
C              -1.3770150000      3.2128780000      7.0783250000
C               3.7277910000      0.0598940000     -0.8448090000
C               2.4950150000    -12.1473710000      7.0965440000
N               3.2495770000    -11.2827340000      7.2999900000
C              -6.1598210000      7.2334670000     -0.4759530000
N              -6.6678390000      6.9974100000      0.5460750000
H              -1.7527280000      5.2345960000     -5.4773250000
H              -4.7966110000      9.0214910000     -4.3260950000
H              -5.1442410000      5.2532120000     -0.1623720000
H              -5.8129290000      2.4528060000     -0.9084390000
H               0.1072780000     -2.2945390000      3.5156750000
H              -4.3077620000     -3.5398530000      1.4523130000
H               1.6476730000     -8.3072740000      5.8062180000
H               1.2811290000    -10.5397010000      6.1005550000
H               0.3298940000    -16.0360330000      6.8341790000
H              -3.5532400000    -14.1695950000      4.3105310000
H              -2.3223870000     -0.7207010000      4.7279640000
H               3.3769200000      0.0062670000      1.8709330000
H               1.2766700000      0.0098610000      3.1398780000
H               1.1619570000      0.0123260000     -1.8037560000
H              -0.9402020000     -0.0123510000     -0.5413200000
H              -2.3839170000      0.6870400000      6.7335040000
H              -0.3429580000      3.8097230000      4.6128170000
H              -0.2566790000      2.3994860000      2.6123300000
H              -5.1473320000     -5.9915030000      1.2128130000
H              -5.3520570000     -6.8928090000     -1.0603090000
H              -0.9538190000     -6.9304530000      1.2009600000
H              -1.1707000000     -7.8551550000     -1.0596740000
H              -4.1770920000     -4.0198260000      4.5647150000
H              -6.0142180000     -4.5229320000      6.1069230000
H              -6.1632220000     -8.5480070000      4.6273640000
H              -4.3426250000     -8.0463420000      3.0678000000
H              -1.5314630000      4.2684240000      6.8342260000
H              -2.1682430000      2.9049160000      7.7676590000
H              -0.4253980000      3.1421670000      7.6196580000
H               3.6147690000     -0.3901680000     -1.8353440000
H               4.0645760000      1.0934310000     -0.9932280000
H               4.5291410000     -0.4695170000     -0.3206550000
H              -7.3354970000     -7.8968140000      6.7980660000
H              -7.4045240000     -6.1909090000      7.2685290000
H              -8.3535330000     -6.7725690000      5.8987870000
H              -4.1928940000     -7.5397580000     -3.1968120000
H              -2.4787900000     -7.9848110000     -3.1759520000
H              -3.6932720000     -9.1079910000     -2.5626980000

  eps=4.88617
  epsinf=4.88617
  RSolv=8.36
 
