%mem=800MW
%nprocshared=64
#p wB97XD/6-31g** opt td=(triplet,nstates=2,root=1) pop=esp scf=(MaxCycle=20000) nosymm iop(3/107=0002300000,3/108=0002300000) SCRF=(PCM,Solvent=Generic,Read)

IT-2Cl

0  1
C         -0.46886        6.88561        3.40150
C         -1.57228        6.34430        4.07712
C         -1.54203        6.34587        5.48147
C         -0.45979        6.88704        6.17782
C          0.63886        7.44557        5.50450
C          0.61126        7.42868        4.10168
C         -2.72964        5.65529        3.30665
C         -2.81316        6.08049        1.83549
C         -2.51444        4.99321        0.99008
C         -2.19924        3.82950        1.73602
C         -2.34393        4.16349        3.12817
S         -2.61567        5.36356       -0.71715
C         -3.06709        7.01595       -0.30338
C         -3.13037        7.22844        1.10129
C         -3.36952        8.13771       -1.06336
C         -3.67409        9.27025       -0.26755
S         -3.56151        8.88229        1.46414
C         -2.11998        3.21682        4.10035
C         -1.73365        1.91689        3.68553
C         -1.56710        1.58970        2.29402
C         -1.80287        2.53286        1.32151
C         -1.44671        0.74404        4.42924
C         -1.06057       -0.31705        3.58573
C         -1.08688        0.12558        2.11786
S         -1.48271        0.33008        6.12921
C         -0.97483       -1.30616        5.71400
C         -0.79488       -1.48110        4.31446
S         -0.29605       -3.11404        3.94673
C         -0.32152       -3.54759        5.67079
C         -0.71410       -2.44290        6.46768
C         -4.04631       10.49600       -0.88367
C         -4.36290       11.77022       -0.42507
C         -4.23572       12.26632        0.97443
C         -4.44990       13.73497        0.92554
C         -4.74041       14.11697       -0.39899
C         -4.76290       12.89995       -1.25931
C         -4.38202       14.65418        1.96621
C         -4.60030       16.00711        1.68489
C         -4.88020       16.38781        0.36634
C         -4.95947       15.46832       -0.68917
H         -4.55176       16.74934        2.47031
Cl        -5.14478       18.09411        0.01302
O         -3.98520       11.61259        1.98007
C         -5.16901       12.87741       -2.59732
C         -5.50006       14.04376       -3.35649
N         -5.77831       14.94601       -4.04386
C         -4.12882        5.85089        3.94787
C         -4.47300        7.05591        4.58183
C         -5.75373        7.25728        5.09927
C         -6.74682        6.26890        5.00041
C         -6.40512        5.07430        4.34833
C         -5.12461        4.86972        3.82809
C          0.32110        0.18077        1.46841
C          0.46738        0.26358        0.07400
C          1.72619        0.41378       -0.51087
C          2.89138        0.48980        0.26949
C          2.74010        0.41363        1.66246
C          1.48183        0.26679        2.25124
C         -2.10842       -0.76753        1.36573
C         -1.70283       -1.93954        0.70796
C         -2.63537       -2.79063        0.11100
C         -4.01105       -2.51273        0.15141
C         -4.41356       -1.34585        0.81991
C         -3.48390       -0.49203        1.41786
C          0.01619       -4.78639        6.28139
C          0.39818       -6.03913        5.81314
C          0.41571       -6.48884        4.39222
C          0.64140       -7.95624        4.41428
C          0.80888       -8.37988        5.74738
C          0.73990       -7.19091        6.64365
C          1.01149       -9.73865        6.01347
C          1.04192      -10.62294        4.92564
C          0.88464      -10.20050        3.59946
C          0.68148       -8.84054        3.34244
C          4.26297        0.62409       -0.36744
C         -5.01853       -3.43083       -0.51697
O          0.26028       -5.80436        3.38801
C          1.03286       -7.20532        8.01073
C          1.32001       -8.39061        8.75826
N          1.55651       -9.31095        9.43722
Cl         1.28858      -12.33821        5.24714
H          0.91650      -10.91708        2.78972
C         -8.12532        6.48180        5.59943
C          1.79497        8.07149        6.26365
C          1.14048       -6.03962        8.83387
N          1.26446       -5.13785        9.56598
C         -5.35955       11.69021       -3.37342
N         -5.55499       10.77042       -4.06654
H         -4.16354       14.33049        2.97599
H         -5.17510       15.82378       -1.68315
H         -4.06259       10.38134       -1.95893
H         -3.38457        8.16848       -2.14328
H         -2.23414        3.44615        5.14984
H         -1.69001        2.30344        0.27186
H         -0.79195       -2.50444        7.54350
H         -0.07052       -4.70766        7.35663
H          1.13557      -10.12608        7.01111
H          0.55483       -8.48409        2.32798
H         -4.91395        3.93327        3.32713
H         -0.47768        6.87400        7.26306
H         -2.36863        5.93201        6.04519
H          1.44227        7.84410        3.54081
H         -0.43561        6.88623        2.31931
H         -7.14521        4.28764        4.24162
H         -5.97697        8.20074        5.58694
H         -3.73943        7.84452        4.68675
H         -0.40080        0.20492       -0.57051
H          1.79719        0.47209       -1.59239
H          1.41738        0.22619        3.33110
H          3.61337        0.47131        2.30438
H         -3.84694        0.39012        1.93030
H         -5.46813       -1.09701        0.88303
H         -2.27945       -3.68639       -0.38758
H         -0.65354       -2.19767        0.65153
H         -8.49093        7.49413        5.40883
H         -8.85394        5.77708        5.19371
H         -8.10054        6.34313        6.68602
H          2.73319        7.98252        5.71120
H          1.61389        9.13878        6.43316
H          1.93270        7.60336        7.24103
H         -4.73867       -4.48088       -0.40170
H         -6.01840       -3.30038       -0.09776
H         -5.08138       -3.22483       -1.59133
H          4.20356        1.09577       -1.35069
H          4.93459        1.22081        0.25436
H          4.72722       -0.35941       -0.50109
                                                   
  eps=4.57494                                      
  epsinf=4.57494                                   
  RSolv=7.71                                       
  

