%mem=800MW
%nprocshared=32
%chk=IT-4Cl-HSO-scan-100-S1fromT1.chk
%rwf=IT-4Cl-HSO-scan-100-S1fromT1.rwf
#p wB97XD/6-31g** td(50-50,nstates=5) 6D 10F nosymm GFInput scf=(MaxCycle=20000) iop(3/107=0001100000,3/108=0001100000) SCRF=(PCM,Solvent=Generic,Read)

 HSO

0 1
C               0.4931000000     -0.2851200000     -0.0194900000
C               0.3931000000     -0.1689700000      1.3742600000
C               1.5850600000     -0.1937900000      2.1180900000
C               2.8246100000     -0.3172400000      1.4889900000
C               2.9291400000     -0.4261000000      0.0920700000
C               1.7366300000     -0.4072200000     -0.6463700000
C              -0.9860100000     -0.1512400000      2.0862900000
C              -2.1398300000      0.2653000000      1.1636100000
C              -3.0164500000     -0.8298500000      0.9451700000
C              -2.5748400000     -1.9850800000      1.6230100000
C              -1.3818700000     -1.6287100000      2.3517700000
S              -4.3952000000     -0.4473700000     -0.0704600000
C              -3.8033700000      1.2096900000     -0.2090500000
C              -2.5870700000      1.4111300000      0.5194700000
C              -4.2898400000      2.3240800000     -0.8674200000
C              -3.4628100000      3.4626500000     -0.6749300000
S              -2.0595100000      3.0672500000      0.3591200000
C              -0.7327800000     -2.5578500000      3.1265500000
C              -1.2629700000     -3.8766700000      3.1744800000
C              -2.4429000000     -4.2394600000      2.4293200000
C              -3.1012000000     -3.3068600000      1.6663300000
C              -0.8265200000     -5.0312000000      3.8615000000
C              -1.6409800000     -6.1499600000      3.5629600000
C              -2.7713300000     -5.7468800000      2.6051100000
S               0.4771300000     -5.3743500000      4.9837200000
C              -0.0679000000     -7.0504500000      5.0598700000
C              -1.2134200000     -7.2889500000      4.2419500000
S              -1.7061100000     -8.9648300000      4.3309900000
C              -0.3919800000     -9.3272400000      5.4726600000
C               0.3850900000     -8.1644600000      5.7416100000
C              -3.6027400000      4.8063100000     -1.0819800000
C              -4.4507200000      5.4154000000     -2.0182000000
C              -5.1617000000      4.7561200000     -3.1563500000
C              -5.5925300000      5.8591000000     -4.0641900000
C              -5.2386000000      7.0976800000     -3.5035200000
C              -4.5952800000      6.8527700000     -2.1810900000
C              -6.2346600000      5.7518100000     -5.2882600000
C              -6.5300500000      6.9267100000     -5.9929100000
C              -6.1749900000      8.1767600000     -5.4480300000
C              -5.5328000000      8.2691900000     -4.2023700000
Cl             -7.3330200000      6.7926100000     -7.5417100000
Cl             -6.5175400000      9.6673800000     -6.2989000000
O              -5.3398300000      3.5636500000     -3.3658000000
C              -4.2933300000      7.8388400000     -1.2394000000
C              -4.4006000000      9.2436300000     -1.4886600000
N              -4.4534400000     10.4018100000     -1.6250000000
C              -1.0367200000      0.7396500000      3.3550000000
C              -0.3228400000      1.9469600000      3.4185500000
C              -0.4266800000      2.7891000000      4.5278000000
C              -1.2534200000      2.4671500000      5.6158700000
C              -1.9763600000      1.2661800000      5.5429600000
C              -1.8751900000      0.4214100000      4.4346900000
C              -2.6579100000     -6.4151800000      1.2094600000
C              -3.7521300000     -6.4331400000      0.3288600000
C              -3.6318500000     -6.9581000000     -0.9595300000
C              -2.4153900000     -7.4819900000     -1.4260100000
C              -1.3209200000     -7.4494900000     -0.5481200000
C              -1.4372200000     -6.9228000000      0.7406000000
C              -4.1230100000     -6.0003200000      3.3243600000
C              -4.7909000000     -7.2294700000      3.1948400000
C              -5.9624400000     -7.4913600000      3.9067400000
C              -6.5134500000     -6.5426200000      4.7842400000
C              -5.8367800000     -5.3216000000      4.9212000000
C              -4.6631400000     -5.0556200000      4.2096700000
C              -0.0891400000    -10.5510400000      6.1141400000
C              -0.5942400000    -11.8492900000      6.0437300000
C              -1.5841500000    -12.3672300000      5.0607500000
C              -1.5730500000    -13.8503800000      5.1964800000
C              -0.6887700000    -14.2174200000      6.2253000000
C              -0.1318500000    -12.9787500000      6.8430100000
C              -0.4850100000    -15.5723400000      6.4928800000
C              -1.1767100000    -16.5296600000      5.7338700000
C              -2.0754900000    -16.1431300000      4.7189700000
C              -2.2743900000    -14.7832100000      4.4476200000
C              -2.2939000000     -8.0905400000     -2.8117000000
C              -7.7982600000     -6.8337900000      5.5396000000
O              -2.2687600000    -11.7279000000      4.2726700000
C               0.6118300000    -12.9445900000      8.0221300000
C               1.0453000000    -14.1101800000      8.7312500000
N               1.4382900000    -15.0116600000      9.3598200000
Cl             -0.8818800000    -18.2175500000      6.0892600000
Cl             -2.9542600000    -17.3220600000      3.7718200000
C              -1.3803500000      3.3986500000      6.8082900000
C               4.2825100000     -0.5377300000     -0.5874400000
C               0.9829400000    -11.7468900000      8.7149600000
N               1.3046200000    -10.8205000000      9.3480500000
C              -3.9104500000      7.5715900000      0.1149300000
N              -3.6226600000      7.4402800000      1.2385900000
H              -6.4994200000      4.7849100000     -5.6937400000
H              -5.2784200000      9.2479800000     -3.8296700000
H              -2.9090900000      5.4808000000     -0.5957200000
H              -5.1890000000      2.3612700000     -1.4578000000
H               0.1585900000     -2.3067400000      3.6832600000
H              -3.9908300000     -3.5581800000      1.1070000000
H               1.2294500000     -8.1788800000      6.4156200000
H               0.7464400000    -10.4264600000      6.7900300000
H               0.1956200000    -15.9183100000      7.2533100000
H              -2.9569800000    -14.4702900000      3.6695900000
H              -2.4566100000     -0.4919600000      4.4247300000
H               3.7222900000     -0.3296100000      2.0993000000
H               1.5555600000     -0.1104600000      3.1973200000
H               1.7702600000     -0.4933400000     -1.7277900000
H              -0.3985200000     -0.2890200000     -0.6338700000
H              -2.6311300000      0.9797600000      6.3598900000
H               0.1471000000      3.7102300000      4.5402400000
H               0.3355300000      2.2351000000      2.6094100000
H              -4.7130500000     -6.0463600000      0.6447800000
H              -4.5031500000     -6.9593300000     -1.6069800000
H              -0.5599300000     -6.9111200000      1.3750300000
H              -0.3604700000     -7.8402800000     -0.8688600000
H              -4.1742300000     -4.1008600000      4.3570000000
H              -6.2230700000     -4.5624200000      5.5937600000
H              -6.4500300000     -8.4520000000      3.7750800000
H              -4.4074900000     -7.9913300000      2.5288900000
H              -2.1417000000      4.1641900000      6.6213900000
H              -1.6719200000      2.8583000000      7.7115900000
H              -0.4399200000      3.9161300000      7.0119700000
H               4.1984200000     -0.9969900000     -1.5746400000
H               4.7346400000      0.4514900000     -0.7206600000
H               4.9773800000     -1.1367700000      0.0063800000
H              -7.7516900000     -7.8066700000      6.0370500000
H              -8.0002200000     -6.0762300000      6.2991700000
H              -8.6544700000     -6.8581300000      4.8569600000
H              -3.0329000000     -7.6747100000     -3.5002400000
H              -1.3019800000     -7.9220800000     -3.2378400000
H              -2.4538500000     -9.1739400000     -2.7725900000

  eps=4.88617
  epsinf=4.88617
  RSolv=8.36
 
