%mem=1000MW
%nprocshared=40
#p wB97XD/6-31g** nosymm pop=esp opt td=(triplet,nstates=2,root=1) scf=(MaxCycle=20000) iop(3/107=0016000000,3/108=0016000000) SCRF=(PCM,Solvent=Generic,Read)

 Y6 opt-TDdft

0 1
C          0.19710        0.87838        0.19331
C          0.25623        0.57219        1.55879
C          1.45105        0.79275        2.26880
C          2.60257        1.28852        1.66330
C          2.53511        1.58387        0.30793
C          1.34207        1.38651       -0.41027
C         -0.74934       -0.00279        2.48590
C         -0.18484        0.07937        3.84332
C          1.25496        0.44358        3.69894
C         -0.92116        0.02975        5.00633
C         -0.59858        0.08685        6.39717
S          1.02588       -0.05669        7.09373
C          0.36346       -0.05058        8.69248
C         -1.03579        0.09862        8.67936
C         -1.60119        0.17863        7.39467
S         -1.75598        0.15790       10.29741
C         -0.15988       -0.01833       10.98304
C          0.86162       -0.10579       10.01374
N          2.08246       -0.26795       10.63193
C          1.85140       -0.25746       12.00795
C          0.43841       -0.14730       12.24081
C          2.74307       -0.30165       13.10681
C          2.22950       -0.52836       14.43601
C          0.80910       -0.52894       14.67258
C         -0.09101       -0.26559       13.57390
N          4.13014       -0.18506       13.17044
C          4.49824       -0.40286       14.48317
C          3.33522       -0.62275       15.27479
C          5.67679       -0.42475       15.23305
C          5.41568       -0.67026       16.60210
S          3.69327       -0.87496       16.96478
C          6.55539       -0.71400       17.42801
C          7.71543       -0.47644       16.67805
S          7.38900       -0.25554       14.95840
N         -1.36993       -0.22105       13.92657
S         -1.42057       -0.50496       15.55634
N          0.19966       -0.68759       15.84061
C          9.11102       -0.51834       17.13464
C          9.83709        0.55795       17.58969
C         11.20327        0.63213       18.05273
C         11.47421        2.03668       18.41923
C         10.31589        2.81966       18.20651
C          9.24389        1.94189       17.68484
C         10.26002        4.18362       18.46139
C         11.40971        4.79878       18.94989
C         12.56807        4.04338       19.16550
C         12.62468        2.67307       18.90976
F         13.66576        4.66660       19.63624
F         11.41883        6.12325       19.21732
C         12.13732       -0.43961       18.15247
C         13.46488       -0.29495       18.63657
N         14.56809       -0.23715       19.02683
O          8.10407        2.27562       17.39007
C          6.54282       -0.95613       18.91506
C          4.99876        0.53821       12.22611
C          3.24869       -0.83119        9.93345
C         -3.08008        0.33899        7.13424
O          2.11045        0.48334        4.57128
C         -1.92956       -0.61528        2.10863
C         -2.41719       -0.64480        0.76133
N         -2.87202       -0.69713       -0.31042
F          3.60440        2.06927       -0.33570
F          1.31802        1.70203       -1.71182
C         11.84901       -1.78160       17.78828
N         11.66699       -2.90387       17.50267
C         -2.76602       -1.36345        3.00093
N         -3.47518       -2.01244        3.65991
H         13.55454        2.15983       19.09863
H          9.35843        4.75704       18.29021
H          9.56973       -1.49707       17.07325
H          7.55699       -1.03153       19.30348
H          6.01428       -1.88241       19.15457
H          6.04031       -0.13519       19.43374
H          5.59597        1.25789       12.78295
H          4.38362        1.09612       11.52699
H          5.65885       -0.14193       11.69103
H          2.90245       -1.55874        9.20130
H          3.87459       -1.36091       10.64404
H          3.82194       -0.05411        9.43040
H         -3.27686        1.11183        6.38980
H         -3.60410        0.62656        8.04498
H         -3.51994       -0.59661        6.78259
H         -1.99093       -0.04736        4.85915
H          3.51919        1.44485        2.21569
H         -0.68815        0.75890       -0.41139

  eps=3.36
  epsinf=3.36
  RSolv=7.28

