%mem=800MW
%nprocshared=64
#p wB97XD/6-31g** opt td=(nstates=2,root=1) pop=esp scf=(MaxCycle=20000) nosymm iop(3/107=0000600000,3/108=0000600000) SCRF=(PCM,Solvent=Generic,Read)

IEICO

0  1
   C    12.280819    -0.896838     9.653337        
   C    12.643327     0.026568     8.666320        
   C    13.961383     0.016654     8.174003        
   C    14.922953    -0.875011     8.627629        
   C    14.554107    -1.793521     9.612606        
   C    13.247346    -1.797308    10.113729        
   C    14.111030     1.073598     7.148304        
   C    12.798786     1.745445     7.032006        
   C    11.880212     1.099313     7.971580        
   C    12.507774     2.797059     6.184244        
   C    13.256940     3.530905     5.233349        
   C    12.655763     4.576198     4.514634        
   C    13.511351     5.213490     3.613482        
   C    14.810876     4.674426     3.606891        
   S    14.943879     3.357492     4.751746        
   C    15.929453     5.079387     2.812825        
   C    17.205733     4.514884     2.810174        
   C    18.083120     5.154443     1.921995        
   C    17.492698     6.201822     1.234482        
   S    15.836260     6.434178     1.663728        
   C    18.427410     6.822317     0.325795        
   C    19.651319     6.109528     0.443718        
   C    19.535131     4.963529     1.476797        
   C    20.761627     6.495927    -0.289357        
   C    20.630833     7.591357    -1.156684        
   C    19.402674     8.294996    -1.286002        
   C    18.297947     7.920785    -0.538121        
   C    19.533272     9.471304    -2.282424        
   C    21.005871     9.324306    -2.674106        
   C    21.580066     8.242175    -2.028191        
   S    23.233383     8.002315    -2.465821        
   C    23.161540     9.403301    -3.559720        
   C    21.891101     9.980379    -3.542160        
   C    18.677419     9.303364    -3.556504        
   C    18.543653    10.380620    -4.446993        
   C    17.853956    10.239892    -5.647387        
   C    17.266456     9.019443    -6.009439        
   C    17.404547     7.947758    -5.122996        
   C    18.097939     8.083428    -3.918301        
   C    16.494410     8.880288    -7.299630        
   C    19.222488    10.786096    -1.537178        
   C    17.903581    11.250841    -1.431413        
   C    17.602610    12.395513    -0.696094        
   C    18.602981    13.120452    -0.036343        
   C    19.917964    12.655023    -0.145391        
   C    20.223992    11.508228    -0.877861        
   C    24.289534     9.830288    -4.328498        
   S    24.182974    11.209705    -5.400185        
   C    25.867297    11.031649    -5.889072        
   C    26.447908     9.938205    -5.227311        
   C    25.579228     9.269153    -4.362378        
   C    19.666711     3.556357     0.854808        
   C    19.541582     3.331740    -0.520097        
   C    19.575940     2.037662    -1.042286        
   C    19.734246     0.921754    -0.214794        
   C    19.851174     1.148777     1.163216        
   C    19.818904     2.437631     1.688558        
   C    20.562243     5.208325     2.601643        
   C    20.242066     5.965184     3.734393        
   C    21.202229     6.241701     4.707881        
   C    22.517447     5.781249     4.585492        
   C    22.835916     5.025058     3.450115        
   C    21.880028     4.743947     2.476519        
   C    26.631958    11.803243    -6.796766        
   C    26.361840    12.905431    -7.585177        
   C    25.061682    13.605341    -7.666817        
   C    25.232726    14.715163    -8.631436        
   C    26.552060    14.710163    -9.120307        
   C    27.294453    13.587280    -8.484818        
   C    26.933606    15.681321   -10.052846        
   C    25.984250    16.622937   -10.464032        
   C    24.675973    16.613626    -9.966969        
   C    24.288146    15.647511    -9.036312        
   O    25.853375     8.186336    -3.593535        
   C    27.172316     7.649499    -3.658752        
   O    24.029164    13.334598    -7.061488        
   C    28.624021    13.285819    -8.732997        
   C    29.329998    12.206562    -8.117774        
   N    29.935540    11.335368    -7.634543        
   C    18.270225    14.347132     0.779113        
   C    19.802747    -0.475142    -0.783976        
   C    23.562277     6.103251     5.627087        
   O    13.217159     6.248971     2.788875        
   C    11.888334     6.763533     2.825910        
   C    10.546479     1.392251     8.207436        
   C     9.741349     0.689703     9.155882        
   N     9.047892     0.144847     9.917608        
   O    15.137304     1.328019     6.525545        
   C    29.444086    14.026713    -9.638529        
   N    30.149322    14.601502   -10.366701        
   C     9.821057     2.423949     7.535741        
   N     9.199717     3.256903     7.007258        
   H    15.279074    -2.506835     9.992584        
   H    15.926674    -0.842428     8.216118        
   H    12.971052    -2.515577    10.879615        
   H    11.282642    -0.933551    10.066976        
   H    11.617021     4.839727     4.669198        
   H    11.860543     7.576502     2.100600        
   H    11.642622     7.152248     3.821072        
   H    11.159103     5.995504     2.542743        
   H    17.467659     3.668338     3.433950        
   H    19.411709     4.169858    -1.195794        
   H    19.476228     1.897623    -2.115904        
   H    19.968799     0.303623     1.837134        
   H    19.921880     2.575579     2.760532        
   H    19.232741     6.340541     3.865625        
   H    20.918673     6.824594     5.580742        
   H    22.158423     4.138482     1.619809        
   H    23.846639     4.643156     3.327407        
   H    21.255981    11.179263    -0.938905        
   H    20.720503    13.198886     0.346814        
   H    17.104719    10.725774    -1.945532        
   H    16.570971    12.734714    -0.640494        
   H    18.976869    11.343560    -4.194046        
   H    17.770702    11.093680    -6.315555        
   H    18.187013     7.225371    -3.261363        
   H    16.964802     6.985801    -5.374736        
   H    17.362111     8.466102    -0.608937        
   H    21.708898     5.975507    -0.189373        
   H    21.636584    10.842912    -4.146747        
   H    18.012108    14.078945     1.811302        
   H    17.414477    14.885881     0.361159        
   H    19.116455    15.038780     0.825335        
   H    15.482463     9.293394    -7.204587        
   H    16.393181     7.831910    -7.594050        
   H    16.984874     9.416017    -8.118619        
   H    27.481802     9.664036    -5.395244        
   H    26.275477    17.378309   -11.187513        
   H    27.933623    15.724027   -10.461433        
   H    23.282706    15.609365    -8.629484        
   H    23.964649    17.359783   -10.307608        
   H    27.184880     6.799243    -2.977095        
   H    27.915891     8.387923    -3.336685        
   H    27.410504     7.308949    -4.673204        
   H    19.298724    -0.537260    -1.752712        
   H    19.337838    -1.203924    -0.112888        
   H    20.842158    -0.792214    -0.935733        
   H    23.107270     6.309776     6.600055        
   H    24.144209     6.989449     5.344355        
   H    24.270642     5.278573     5.752721        
   H    11.491278     3.170595     6.229827        
   H    27.641870    11.414858    -6.861011        
                                                   
  eps=4.9548                                       
  epsinf=4.9548                                    
  RSolv=8.20                                       
                                                   
                                                   
 
