%mem=800MW
%nprocshared=32
%chk=Y6-HSO-scan-160-T2fromS1.chk
%rwf=Y6-HSO-scan-160-T2fromS1.rwf
#p wB97XD/6-31g** td(50-50,nstates=5) 6D 10F nosymm GFInput scf=(MaxCycle=20000) iop(3/107=0016000000,3/108=0016000000) SCRF=(PCM,Solvent=Generic,Read)

 HSO

0 1
C              -0.0506200000      0.4688500000     -0.0122600000
C               0.0374600000      0.2530200000      1.3684800000
C               1.2311400000      0.5634500000      2.0437400000
C               2.3535300000      1.0650700000      1.3916900000
C               2.2573100000      1.2719700000      0.0210900000
C               1.0655500000      0.9827700000     -0.6645300000
C              -0.9334100000     -0.2983600000      2.3498800000
C              -0.3461800000     -0.1313100000      3.6842800000
C               1.0661000000      0.2949400000      3.4970500000
C              -1.0564700000     -0.1756600000      4.8712300000
C              -0.7172600000     -0.0548400000      6.2458600000
S               0.9304800000     -0.0553000000      6.9209400000
C               0.2983100000     -0.0546400000      8.5308700000
C              -1.1082200000     -0.0124600000      8.5399200000
C              -1.7020800000     -0.0092800000      7.2671800000
S              -1.7955100000      0.0395200000     10.1717600000
C              -0.1771100000      0.0093900000     10.8277400000
C               0.8217900000     -0.0323100000      9.8456500000
N               2.0679200000     -0.0807300000     10.4482500000
C               1.8589700000     -0.0398900000     11.8226100000
C               0.4600800000     -0.0257400000     12.0856200000
C               2.7885000000     -0.0037200000     12.9141300000
C               2.3280600000     -0.2417200000     14.2416100000
C               0.9210700000     -0.3358800000     14.5147200000
C              -0.0253200000     -0.1546500000     13.4323200000
N               4.1598600000      0.2204500000     12.9351000000
C               4.5772300000      0.0626000000     14.2479300000
C               3.4756300000     -0.2289500000     15.0597200000
C               5.7837400000      0.1346600000     14.9818300000
C               5.5758600000     -0.1145800000     16.3444800000
S               3.9010500000     -0.4360600000     16.7424700000
C               6.7749100000     -0.1341600000     17.1512300000
C               7.9301300000      0.2671900000     16.3193100000
S               7.4601300000      0.4066500000     14.6066100000
N              -1.2956000000     -0.1938300000     13.8206900000
S              -1.2839100000     -0.4503800000     15.4557100000
N               0.3516800000     -0.5134800000     15.7023300000
C               9.2543500000      0.4668900000     16.6452600000
C               9.8446100000      0.7120800000     17.9255400000
C              11.2102500000      0.3521000000     18.2982900000
C              11.4834900000      1.0189200000     19.5450700000
C              10.3298900000      1.7961200000     19.9148700000
C               9.3365300000      1.5942800000     18.9217900000
C              10.3001100000      2.5719900000     21.0934400000
C              11.4100900000      2.5433000000     21.9052700000
C              12.5441400000      1.7579300000     21.5658300000
C              12.5957200000      0.9983600000     20.4149800000
F              13.5932200000      1.7704300000     22.4114000000
F              11.4451700000      3.2577200000     23.0500500000
C              12.0530700000     -0.5617400000     17.5923700000
C              13.4457400000     -0.6717400000     17.8392800000
N              14.5997000000     -0.7759900000     18.0115200000
O               8.1847500000      2.2894200000     18.9426200000
C               6.8543700000     -0.5984900000     18.4353700000
C               4.9414600000      0.9831500000     11.9501800000
C               3.2523200000     -0.6023500000      9.7495700000
C              -3.1958700000      0.0244100000      7.0513900000
O               1.9329900000      0.4361300000      4.3493800000
C              -2.1104400000     -0.9514300000      2.0220100000
C              -2.6258500000     -1.0486400000      0.6892400000
N              -3.1043300000     -1.1574200000     -0.3684500000
F               3.2995700000      1.7588300000     -0.6676500000
F               1.0115700000      1.2127600000     -1.9846300000
C              11.5682400000     -1.4620300000     16.6092900000
N              11.1940000000     -2.2261200000     15.8029500000
C              -2.9171200000     -1.6762700000      2.9585800000
N              -3.6062200000     -2.3111600000      3.6524700000
H              13.4878600000      0.4253200000     20.2097500000
H               9.4384700000      3.1641100000     21.3703700000
H               9.9515500000      0.4625100000     15.8119400000
H               7.8007400000     -0.6894000000     18.9466600000
H               5.9710500000     -0.9275700000     18.9657900000
H               7.6418000000      2.0767500000     18.1766800000
H               5.4322500000      1.8157100000     12.4528600000
H               4.2724300000      1.4019300000     11.2055400000
H               5.6905700000      0.3571800000     11.4674700000
H               2.9428600000     -1.3999600000      9.0757400000
H               3.9395800000     -1.0321800000     10.4714800000
H               3.7522400000      0.1787100000      9.1781800000
H              -3.4750300000      0.6363000000      6.1938100000
H              -3.6972600000      0.4457300000      7.9228800000
H              -3.5892200000     -0.9832400000      6.8973600000
H              -2.1230900000     -0.3107500000      4.7451100000
H               3.2698800000      1.2909300000      1.9201900000
H              -0.9368900000      0.2735400000     -0.5953000000

  eps=3.36
  epsinf=3.36
  RSolv=7.28
 
