%mem=800MW
%nprocshared=64
#p wB97XD/6-31g** opt td=(nstates=2,root=1) pop=esp scf=(MaxCycle=20000) nosymm iop(3/107=0001000000,3/108=0001000000) SCRF=(PCM,Solvent=Generic,Read)

IT-4F

0  1
C          0.20139        0.09398       -0.03684
C          0.14717        0.10056        1.36694
C          1.35618        0.23302        2.06515
C          2.57400        0.33371        1.38743
C          2.63426        0.31295       -0.01423
C          1.41982        0.19477       -0.71042
C         -1.21245        0.09070        2.11335
C         -1.09897       -0.32587        3.58500
C         -1.43363        0.75107        4.43068
C         -1.74882        1.91490        3.68422
C         -1.65425        1.56604        2.29105
S         -1.38065        0.36422        6.13720
C         -0.90144       -1.28096        5.72171
C         -0.79951       -1.47934        4.31754
C         -0.60970       -2.40860        6.47791
C         -0.26754       -3.52921        5.67903
S         -0.31786       -3.11718        3.94970
C         -2.09969        3.22552        4.09721
C         -2.35181        4.16243        3.12257
C         -2.26371        3.81181        1.72936
C         -1.91142        2.50154        1.31641
C         -2.71142        5.66033        3.29992
C         -2.81278        6.07924        1.82806
C         -2.57066        4.97772        0.98261
S         -2.70152        5.34349       -0.72437
C         -3.08375        7.01379       -0.30949
C         -3.10462        7.23421        1.09497
S         -3.47568        8.90071        1.46192
C         -3.60128        9.29193       -0.26856
C         -3.35864        8.14500       -1.06660
C          0.03437       -4.77678        6.29141
C          0.40098       -6.03624        5.82743
C          0.66719       -6.40708        4.41029
C          1.12976       -7.81741        4.41759
C          1.13116       -8.29834        5.74045
C          0.64825       -7.22051        6.64893
C          1.51582       -8.59123        3.32837
C          1.92272       -9.89747        3.58096
C          1.93488      -10.39439        4.89335
C          1.54392       -9.61579        5.98156
O          0.54475       -5.70428        3.41415
C          0.45040       -7.37952        8.02395
C          0.75005       -8.57968        8.74353
N          0.97473       -9.52983        9.41187
C         -2.29974       -0.79931        1.45461
C         -1.96239       -2.01966        0.84790
C         -2.94727       -2.86833        0.33809
C         -4.30969       -2.53818        0.41648
C         -4.64391       -1.32217        1.03366
C         -3.66167       -0.47139        1.54585
C         -4.10261        5.87831        3.95392
C         -4.43408        7.10488        4.55110
C         -5.70952        7.33122        5.07333
C         -6.70898        6.34711        5.01569
C         -6.37878        5.12757        4.40320
C         -5.10469        4.89811        3.87910
C         -1.53787        6.34064        4.05221
C         -1.50697        6.38703        5.45583
C         -0.41132        6.92372        6.13460
C          0.70134        7.43156        5.44381
C          0.67388        7.36720        4.04237
C         -0.42020        6.82943        3.35970
C         -3.88921       10.54119       -0.88446
C         -4.16988       11.82415       -0.42503
C         -4.43501       13.00024       -1.25367
C         -4.73843       14.13257       -0.33357
C         -4.63586       13.68336        0.99633
C         -4.27594       12.24356        0.99955
C         -4.85532       14.50742        2.09487
C         -5.19259       15.83393        1.84527
C         -5.30388       16.30045        0.52642
C         -5.08077       15.47071       -0.57125
C         -8.08343        6.58197        5.61637
C          1.87103        8.05434        6.18479
C         -4.40580       13.10668       -2.64777
C         -4.68703       14.31202       -3.36630
N         -4.90604       15.26308       -4.03517
O         -4.10857       11.55546        1.99940
C         -5.37506       -3.45036       -0.16476
C          3.95925        0.38721       -0.75175
C         -4.08185       12.04718       -3.55355
N         -3.82403       11.23388       -4.37035
C         -0.09509       -6.38908        8.90120
N         -0.54365       -5.63434        9.69185
F         -5.41727       16.68226        2.86376
F         -5.63584       17.58716        0.32058
H         -4.76860       14.14177        3.10933
H         -5.18724       15.90081       -1.55369
H         -3.88362       10.43183       -1.95960
H         -3.38739        8.17487       -2.14619
H         -2.16336        3.47141        5.14727
H         -1.84521        2.25588        0.26642
H         -0.64176       -2.45592        7.55678
H         -0.04433       -4.68913        7.36573
H          1.58169      -10.06683        6.95984
F          2.33661      -11.66053        5.10218
F          2.30965      -10.69736        2.57198
H          1.50455       -8.20224        2.31899
H         -4.90431        3.94416        3.40836
H         -0.42987        6.94827        7.21967
H         -2.34293        6.01198        6.03269
H          1.51520        7.74180        3.46826
H         -0.38702        6.79314        2.27802
H         -7.12396        4.34181        4.33062
H         -5.92196        8.29176        5.53136
H         -3.69561        7.89229        4.62452
H         -0.70853        0.00254       -0.61664
H          1.41976        0.17962       -1.79582
H          1.36275        0.26473        3.14754
H          3.48782        0.42974        1.96494
H         -3.97229        0.44922        2.02346
H         -5.68585       -1.03174        1.12372
H         -2.64326       -3.80164       -0.12461
H         -0.92532       -2.31610        0.76049
H         -8.35333        7.64021        5.59494
H         -8.85570        6.02485        5.08088
H         -8.11002        6.25725        6.66280
H          2.79398        7.99301        5.60397
H          1.67993        9.11416        6.38723
H          2.04274        7.56400        7.14606
H         -5.08438       -4.50102       -0.09325
H         -6.33128       -3.32858        0.34886
H         -5.54105       -3.22760       -1.22484
H          3.86161        0.92803       -1.69616
H          4.72457        0.88585       -0.15310
H          4.32824       -0.61748       -0.98678
                                                  
  eps=4.73931                                      
  epsinf=4.73931                                   
  RSolv=8.25                                       
   
