%mem=800MW
%nprocshared=64
#p wB97XD/6-31g** opt td=(nstates=2,root=1) pop=esp scf=(MaxCycle=20000) nosymm iop(3/107=0001000000,3/108=0001000000) SCRF=(PCM,Solvent=Generic,Read)

IT-4F

0  1
C          0.29390        0.18129       -0.01254
C          0.22241        0.12427        1.38918
C          1.42562        0.20142        2.10587
C          2.65241        0.31476        1.44742
C          2.72895        0.36473        0.04702
C          1.52162        0.29723       -0.66724
C         -1.14827        0.10622        2.11645
C         -1.04839       -0.31308        3.58795
C         -1.36562        0.76896        4.43355
C         -1.67230        1.93488        3.68677
C         -1.59254        1.58170        2.29364
S         -1.32092        0.38043        6.13989
C         -0.87450       -1.27385        5.72394
C         -0.77361       -1.47305        4.31984
C         -0.61009       -2.40864        6.47941
C         -0.29182       -3.53587        5.67986
S         -0.32600       -3.12019        3.95086
C         -2.01268        3.24816        4.10001
C         -2.27659        4.18239        3.12588
C         -2.21592        3.82404        1.73329
C         -1.86813        2.51283        1.31987
C         -2.63254        5.68190        3.30145
C         -2.77485        6.08910        1.82980
C         -2.54732        4.98303        0.98637
S         -2.73145        5.33329       -0.71888
C         -3.11866        7.00286       -0.30636
C         -3.09784        7.23553        1.09621
S         -3.47383        8.90173        1.46010
C         -3.65575        9.27591       -0.26917
C         -3.42898        8.12421       -1.06439
C         -0.02934       -4.79286        6.29097
C          0.30261       -6.06168        5.82627
C          0.58292       -6.43345        4.41226
C          0.99373       -7.85978        4.41914
C          0.95006       -8.34869        5.73851
C          0.49808       -7.25649        6.64579
C          1.36931       -8.64177        3.33210
C          1.71522       -9.96579        3.58317
C          1.67595      -10.47278        4.89118
C          1.29683       -9.68555        5.97732
O          0.50688       -5.72044        3.41896
C          0.28554       -7.41047        8.01992
C          0.54809       -8.61765        8.74133
N          0.74160       -9.56053        9.40286
C         -2.22567       -0.78151        1.43971
C         -1.87714       -1.96992        0.77852
C         -2.85597       -2.81590        0.25292
C         -4.22273       -2.51650        0.37226
C         -4.56767       -1.33343        1.04485
C         -3.59142       -0.48430        1.57107
C         -4.00627        5.90230        3.99093
C         -4.31473        7.11751        4.62067
C         -5.57811        7.34194        5.17484
C         -6.58589        6.36784        5.11677
C         -6.27874        5.15874        4.47024
C         -5.01866        4.93143        3.91503
C         -1.43951        6.36779        4.01681
C         -1.35610        6.39504        5.41880
C         -0.24223        6.93590        6.06375
C          0.83721        7.46794        5.33937
C          0.75700        7.42431        3.93913
C         -0.35513        6.88171        3.29026
C         -3.96086       10.52049       -0.88564
C         -4.23616       11.80419       -0.42582
C         -4.51150       12.97354       -1.25884
C         -4.93380       14.07642       -0.35110
C         -4.83828       13.63330        0.98172
C         -4.38403       12.21969        0.99636
C         -5.14351       14.44037        2.07239
C         -5.56804       15.73942        1.81121
C         -5.67694       16.19718        0.48904
C         -5.36353       15.38662       -0.60099
C         -7.94995        6.59628        5.74317
C          2.02713        8.09445        6.04408
C         -4.36706       13.10126       -2.64414
C         -4.70368       14.28117       -3.37967
N         -4.96090       15.20189       -4.05060
O         -4.18684       11.54609        2.00029
C         -5.28053       -3.43042       -0.22012
C          4.06610        0.46293       -0.66556
C         -3.83296       12.09711       -3.51240
N         -3.39635       11.33826       -4.28594
C         -0.23588       -6.40496        8.89404
N         -0.66326       -5.64673        9.67343
F         -5.88111       16.56935        2.82151
F         -6.09658       17.45615        0.27248
H         -5.05751       14.08248        3.08964
H         -5.47358       15.80730       -1.58738
H         -3.98788       10.40507       -1.96028
H         -3.49111        8.14450       -2.14277
H         -2.06236        3.49673        5.15012
H         -1.82148        2.26392        0.26970
H         -0.64749       -2.45681        7.55805
H         -0.11531       -4.70658        7.36489
H          1.29030      -10.14562        6.95204
F          2.01460      -11.75759        5.09742
F          2.09045      -10.77428        2.57658
H          1.39595       -8.24587        2.32571
H         -4.83479        3.98628        3.42011
H         -0.21936        6.94370        7.14896
H         -2.16477        6.00218        6.02212
H          1.57101        7.81804        3.33899
H         -0.36282        6.86140        2.20771
H         -7.03215        4.38093        4.39622
H         -5.77334        8.29433        5.65682
H         -3.56918        7.89819        4.69438
H         -0.60941        0.12865       -0.60735
H          1.53366        0.33572       -1.75193
H          1.42067        0.17994        3.18831
H          3.56067        0.36711        2.03927
H         -3.90893        0.41075        2.09141
H         -5.61297       -1.06833        1.16766
H         -2.54430       -3.72452       -0.25201
H         -0.83666       -2.24430        0.66455
H         -8.13786        7.65719        5.91962
H         -8.74989        6.21281        5.10442
H         -8.02665        6.08141        6.70725
H          2.93886        8.00685        5.44886
H          1.85263        9.16144        6.22231
H          2.20986        7.62623        7.01408
H         -5.01356       -4.48271       -0.09470
H         -6.25479       -3.27209        0.24697
H         -5.39591       -3.24800       -1.29437
H          3.96266        0.92390       -1.65030
H          4.78226        1.05330       -0.08901
H          4.50318       -0.53134       -0.81103
                                                 
  eps=4.73931                                      
  epsinf=4.73931                                   
  RSolv=8.25                                       
 
